data_global
_audit_creation_method 'Generated by Python Script'

_symmetry_space_group_name_H-M 'P 1'
_symmetry_Int_Tables_number 1
_symmetry_cell_setting triclinic
loop_
_symmetry_equiv_pos_as_xyz
  'x, y, z'

_cell_length_a    56.38709174231433
_cell_length_b    56.38709174231433
_cell_length_c    56.38709174231433
_cell_angle_alpha 90.0
_cell_angle_beta  90.0
_cell_angle_gamma 90.0

loop_
_atom_site_label
_atom_site_occupancy
_atom_site_fract_x
_atom_site_fract_y
_atom_site_fract_z
_atom_site_adp_type
_atom_site_U_iso_or_equiv
_atom_site_type_symbol
Pt1  1.0  0.6265094775624295  0.42084132820267406  0.525372921199972  Uiso  ?  Pt
Pt1  1.0  0.6296540857711307  0.42028149676264454  0.47386618680977677  Uiso  ?  Pt
Pt1  1.0  0.585173953957236  0.42064761204123025  0.5017134139420729  Uiso  ?  Pt
Pt1  1.0  0.5839292396008846  0.42360807414723983  0.5491402924883616  Uiso  ?  Pt
Pt1  1.0  0.5423426710444659  0.4213743931297088  0.5776811659246686  Uiso  ?  Pt
Pt1  1.0  0.5435541129187199  0.41987168953051884  0.5222468766938911  Uiso  ?  Pt
Pt1  1.0  0.4992544646936275  0.4219055416831861  0.5498857421669221  Uiso  ?  Pt
Pt1  1.0  0.5002584587941752  0.4254330172128925  0.5968237024014493  Uiso  ?  Pt
Pt1  1.0  0.45458091796120903  0.41886716893842596  0.5744280978429043  Uiso  ?  Pt
Pt1  1.0  0.628239758105585  0.42166402300724143  0.42684407647872225  Uiso  ?  Pt
Pt1  1.0  0.5853758184128537  0.41839209033854097  0.40127931154235935  Uiso  ?  Pt
Pt1  1.0  0.5843294353798547  0.4204162134819495  0.4491729187560437  Uiso  ?  Pt
Pt1  1.0  0.541384655236691  0.42055659771638926  0.4756211206569282  Uiso  ?  Pt
Pt1  1.0  0.539760716717069  0.4248462434170752  0.42314368972165317  Uiso  ?  Pt
Pt1  1.0  0.5018340508835678  0.4210232085994255  0.4500078643439877  Uiso  ?  Pt
Pt1  1.0  0.500953613718087  0.4224935181712591  0.50116367469385  Uiso  ?  Pt
Pt1  1.0  0.4584483865848775  0.42160345690515977  0.5236983283506378  Uiso  ?  Pt
Pt1  1.0  0.45958868429693694  0.4201530444643482  0.4736639811473349  Uiso  ?  Pt
Pt1  1.0  0.41370909853960147  0.4204122720233745  0.5012888564073811  Uiso  ?  Pt
Pt1  1.0  0.5024822098611548  0.42171640734150617  0.4002962776772563  Uiso  ?  Pt
Pt1  1.0  0.45804794788859204  0.4195443639329948  0.42546465143433515  Uiso  ?  Pt
Pt1  1.0  0.4144460300288388  0.4213669224579461  0.4500789599508972  Uiso  ?  Pt
Pt1  1.0  0.6425429323810143  0.4594738124113667  0.5031042662058194  Uiso  ?  Pt
Pt1  1.0  0.6401292008483922  0.46040657786525385  0.5495964840728793  Uiso  ?  Pt
Pt1  1.0  0.5982696886128919  0.4613662080646703  0.52659539457986  Uiso  ?  Pt
Pt1  1.0  0.557005117448943  0.45698719203487453  0.5519465755688359  Uiso  ?  Pt
Pt1  1.0  0.63896448137473  0.46240482985870857  0.45411731174947456  Uiso  ?  Pt
Pt1  1.0  0.5979465286941554  0.46339670179213716  0.47442554733228076  Uiso  ?  Pt
Pt1  1.0  0.5982931400579959  0.4605302488080296  0.4248071623550187  Uiso  ?  Pt
Pt1  1.0  0.55594341065732  0.46033184829640444  0.4513076031350864  Uiso  ?  Pt
Pt1  1.0  0.554223928010817  0.4589147964423396  0.5004419403886139  Uiso  ?  Pt
Pt1  1.0  0.511477185757864  0.46064491895377585  0.5254859194585085  Uiso  ?  Pt
Pt1  1.0  0.511282458910815  0.4622697929096414  0.4770440896919193  Uiso  ?  Pt
Pt1  1.0  0.4686851293269736  0.46129345135419725  0.49788268627088794  Uiso  ?  Pt
Pt1  1.0  0.4709585924160197  0.46011244186146866  0.5510242697960411  Uiso  ?  Pt
Pt1  1.0  0.4326393021366202  0.46163068858174094  0.5235572253812425  Uiso  ?  Pt
Pt1  1.0  0.5530752017012986  0.4597149049261474  0.4040219136781602  Uiso  ?  Pt
Pt1  1.0  0.5133961435610712  0.4600654052418624  0.4236715772657981  Uiso  ?  Pt
Pt1  1.0  0.5119661246644567  0.45760320324993803  0.38088792430662005  Uiso  ?  Pt
Pt1  1.0  0.4719716792521328  0.45895017912287217  0.40088228493016437  Uiso  ?  Pt
Pt1  1.0  0.46893500701339885  0.46269714546035606  0.45202447453280803  Uiso  ?  Pt
Pt1  1.0  0.42933281905760967  0.46186381136732296  0.47518595672844716  Uiso  ?  Pt
Pt1  1.0  0.4298783519891579  0.4596160254280583  0.42741800662961427  Uiso  ?  Pt
Pt1  1.0  0.657218546360275  0.499026977579752  0.5261578477579835  Uiso  ?  Pt
Pt1  1.0  0.6132734123808681  0.5008454534651303  0.5495283789479871  Uiso  ?  Pt
Pt1  1.0  0.5689603276707617  0.5029698361071266  0.5719977227496377  Uiso  ?  Pt
Pt1  1.0  0.52982506301029  0.49744001630078066  0.5988294549713588  Uiso  ?  Pt
Pt1  1.0  0.48553065408525775  0.49954341594135754  0.6237802825789132  Uiso  ?  Pt
Pt1  1.0  0.6550360414212998  0.5011474186218398  0.47638919389522655  Uiso  ?  Pt
Pt1  1.0  0.6120748196980931  0.5012286513896866  0.4517105923400549  Uiso  ?  Pt
Pt1  1.0  0.6153490238905437  0.5010550096823888  0.5004945910811481  Uiso  ?  Pt
Pt1  1.0  0.5720094957384719  0.5029369108516595  0.5261920557849971  Uiso  ?  Pt
Pt1  1.0  0.5709970471751936  0.5013228268815975  0.4785578026756273  Uiso  ?  Pt
Pt1  1.0  0.5277517947234508  0.5001903384400568  0.5007331765135454  Uiso  ?  Pt
Pt1  1.0  0.5265754386915442  0.505860165671175  0.5498776396346602  Uiso  ?  Pt
Pt1  1.0  0.48369053445777177  0.5019719044444616  0.5744015947102401  Uiso  ?  Pt
Pt1  1.0  0.4855237718195643  0.49780961903206844  0.5248830192364492  Uiso  ?  Pt
Pt1  1.0  0.4407065330016675  0.5016834426101999  0.5495298767524923  Uiso  ?  Pt
Pt1  1.0  0.44394227933205116  0.5057835172688878  0.5957260294759662  Uiso  ?  Pt
Pt1  1.0  0.6137779205631864  0.5002995744809503  0.40260042925602185  Uiso  ?  Pt
Pt1  1.0  0.572553016941924  0.5048284577903794  0.42632067126977596  Uiso  ?  Pt
Pt1  1.0  0.5683142458230551  0.5004210549611964  0.37922676294337226  Uiso  ?  Pt
Pt1  1.0  0.5279462401276277  0.5029941112724542  0.40379093712991526  Uiso  ?  Pt
Pt1  1.0  0.5286376205462823  0.5017125229627447  0.45173093944592285  Uiso  ?  Pt
Pt1  1.0  0.4836582660326778  0.49969674221823357  0.47677431842653945  Uiso  ?  Pt
Pt1  1.0  0.4880206763524992  0.4996955384240098  0.4318896413622537  Uiso  ?  Pt
Pt1  1.0  0.4433176267634138  0.49975018346152833  0.4485774395078227  Uiso  ?  Pt
Pt1  1.0  0.4433067954411417  0.5010008542033644  0.5000533542459076  Uiso  ?  Pt
Pt1  1.0  0.4887436922402614  0.5020348578089958  0.3750479178173302  Uiso  ?  Pt
Pt1  1.0  0.44013333014534645  0.5005694578808424  0.4021937905404301  Uiso  ?  Pt
Pt1  1.0  0.6257329574054725  0.5390589250747584  0.5764342732639897  Uiso  ?  Pt
Pt1  1.0  0.5850348911020492  0.544819380640732  0.5974711955105851  Uiso  ?  Pt
Pt1  1.0  0.5427798832949814  0.5416188389387544  0.6223282583111901  Uiso  ?  Pt
Pt1  1.0  0.6275257722388465  0.5400972958032194  0.52605733804169  Uiso  ?  Pt
Pt1  1.0  0.6269788721614464  0.539906777160093  0.47510367453131974  Uiso  ?  Pt
Pt1  1.0  0.5825562772225236  0.5402887659653224  0.5023682888371124  Uiso  ?  Pt
Pt1  1.0  0.5856295831832172  0.5423313628325628  0.5495727556309404  Uiso  ?  Pt
Pt1  1.0  0.5412374200864898  0.5445744142879633  0.5714247876099198  Uiso  ?  Pt
Pt1  1.0  0.5420351423474666  0.5430541935769267  0.5264671838772929  Uiso  ?  Pt
Pt1  1.0  0.5009559103312241  0.5425866912331596  0.5507021221913552  Uiso  ?  Pt
Pt1  1.0  0.49739059209483355  0.5417997634448466  0.597383754190367  Uiso  ?  Pt
Pt1  1.0  0.4545728619955307  0.5397897971723206  0.5726495662014764  Uiso  ?  Pt
Pt1  1.0  0.6269523602234988  0.5397769885785275  0.4252938501976807  Uiso  ?  Pt
Pt1  1.0  0.5876836961083313  0.5403803227378824  0.40695475858949487  Uiso  ?  Pt
Pt1  1.0  0.5822975967416321  0.5405889898552202  0.4465673293168785  Uiso  ?  Pt
Pt1  1.0  0.5416377185064524  0.540472563321418  0.4784963564972369  Uiso  ?  Pt
Pt1  1.0  0.5442221755289202  0.5383577363881915  0.42601261977270766  Uiso  ?  Pt
Pt1  1.0  0.4999710485443971  0.538279335850009  0.4513855754893968  Uiso  ?  Pt
Pt1  1.0  0.4981672888997881  0.5420812201321162  0.49871524975289705  Uiso  ?  Pt
Pt1  1.0  0.45901038679914663  0.54505279292462  0.5257838072732036  Uiso  ?  Pt
Pt1  1.0  0.4599141541405909  0.5415156010683073  0.47706338245153307  Uiso  ?  Pt
Pt1  1.0  0.4156342763375145  0.5414371964538419  0.5015098159183338  Uiso  ?  Pt
Pt1  1.0  0.41578575787019467  0.5419092735929868  0.5502474530586602  Uiso  ?  Pt
Pt1  1.0  0.5006539623839992  0.5445469443543036  0.40070088038175344  Uiso  ?  Pt
Pt1  1.0  0.4581215323946962  0.5421683192498165  0.42583112462371236  Uiso  ?  Pt
Pt1  1.0  0.4171809065958378  0.5415307597111841  0.4499298198520599  Uiso  ?  Pt
Pt1  1.0  0.6386430895354844  0.5809068868015127  0.6015577710437564  Uiso  ?  Pt
Pt1  1.0  0.5985129628240458  0.5799916643687935  0.6199930777246069  Uiso  ?  Pt
Pt1  1.0  0.6417343596985806  0.581737328375905  0.5025739891919931  Uiso  ?  Pt
Pt1  1.0  0.6393682349512195  0.5832915749200285  0.5494447267880794  Uiso  ?  Pt
Pt1  1.0  0.5970378835219521  0.5813782601210863  0.5762511771636801  Uiso  ?  Pt
Pt1  1.0  0.6009538090108733  0.5827084830631254  0.5241951565913697  Uiso  ?  Pt
Pt1  1.0  0.5578882426663824  0.5824270620692441  0.5461563911194371  Uiso  ?  Pt
Pt1  1.0  0.5577512859890236  0.5816205388699074  0.5972359808560738  Uiso  ?  Pt
Pt1  1.0  0.5131449345249784  0.5779669181856123  0.6203062805217288  Uiso  ?  Pt
Pt1  1.0  0.5133524827245078  0.5809649857336427  0.5753076278751763  Uiso  ?  Pt
Pt1  1.0  0.4701600815312261  0.5833888955736406  0.5963707945193198  Uiso  ?  Pt
Pt1  1.0  0.6397620557503629  0.5791089415844597  0.4520134814325471  Uiso  ?  Pt
Pt1  1.0  0.5994702877787287  0.5817352069026189  0.47367930515594436  Uiso  ?  Pt
Pt1  1.0  0.5993390329347987  0.5792049777938589  0.42232452364470974  Uiso  ?  Pt
Pt1  1.0  0.5525109501324071  0.5815810955386524  0.450040977251512  Uiso  ?  Pt
Pt1  1.0  0.5553791646310191  0.5779367569853389  0.5031908932289068  Uiso  ?  Pt
Pt1  1.0  0.512804667325897  0.5802979566431504  0.5258582945375339  Uiso  ?  Pt
Pt1  1.0  0.5130845019917772  0.5769026404509329  0.4747066004685591  Uiso  ?  Pt
Pt1  1.0  0.4689648824437111  0.5806447653389686  0.5000593660938657  Uiso  ?  Pt
Pt1  1.0  0.47048180117270005  0.5831996104501103  0.5490426536690115  Uiso  ?  Pt
Pt1  1.0  0.4279460068604978  0.5807641230453043  0.5725392151564946  Uiso  ?  Pt
Pt1  1.0  0.4304844964223875  0.5833223003753994  0.5252766463534596  Uiso  ?  Pt
Pt1  1.0  0.555949238233198  0.5787573630426451  0.4015070861906731  Uiso  ?  Pt
Pt1  1.0  0.5146575387611984  0.5821458360607994  0.4291011059184439  Uiso  ?  Pt
Pt1  1.0  0.4725704518380344  0.5802566137258559  0.40143695404052865  Uiso  ?  Pt
Pt1  1.0  0.47287142564701734  0.5806135413748107  0.4478229852235089  Uiso  ?  Pt
Pt1  1.0  0.42573387216995145  0.5839050626641732  0.47568545406546847  Uiso  ?  Pt
O1  1.0  0.20411692526204747  0.35606668494342436  0.9375406738226868  Uiso  ?  O
O1  1.0  0.2528268191064462  0.3578175918595658  0.9373789441887435  Uiso  ?  O
Ce1  1.0  0.23083563619691375  0.38048536905922953  0.9114573522481061  Uiso  ?  Ce
O1  1.0  0.20843332198800824  0.35618066574229834  0.8909388197521599  Uiso  ?  O
O1  1.0  0.2553818504152553  0.3582873631783325  0.8868691327056856  Uiso  ?  O
O1  1.0  0.2526049207997189  0.4077394114626128  0.887973438123708  Uiso  ?  O
O1  1.0  0.20543333168022915  0.35721137258181124  0.8422096702188363  Uiso  ?  O
O1  1.0  0.2541077074518427  0.3548686481896045  0.8397164180962676  Uiso  ?  O
O1  1.0  0.25393049011931146  0.40592669150492205  0.8394150622595573  Uiso  ?  O
Ce1  1.0  0.18186278705090098  0.3827824494971179  0.7665120274143835  Uiso  ?  Ce
Ce1  1.0  0.23273687429279027  0.38543845257014714  0.8157842274391133  Uiso  ?  Ce
O1  1.0  0.20599029453284465  0.3597643426445982  0.794940376813637  Uiso  ?  O
O1  1.0  0.255081285454335  0.3582888309101694  0.7949811229142744  Uiso  ?  O
O1  1.0  0.2558026668084439  0.4064972559762168  0.7931472256494326  Uiso  ?  O
O1  1.0  0.2051608511179894  0.3597906698511661  0.7480412447709203  Uiso  ?  O
O1  1.0  0.25409402736885706  0.36026093150375477  0.7459428671259802  Uiso  ?  O
O1  1.0  0.2542126997920951  0.4058122347487729  0.7444076742347913  Uiso  ?  O
Ce1  1.0  0.18320499493415843  0.38500802283246266  0.6718722641655778  Uiso  ?  Ce
Ce1  1.0  0.2293875305739456  0.3803494102139185  0.7229636169058925  Uiso  ?  Ce
O1  1.0  0.20562235386469596  0.3603661760462936  0.6972709058320676  Uiso  ?  O
O1  1.0  0.2538301644011331  0.3581249925685877  0.6984839579345691  Uiso  ?  O
O1  1.0  0.2552206640323209  0.40345160429707566  0.6991474194557311  Uiso  ?  O
O1  1.0  0.20785970826550418  0.3576335614573523  0.6475880447208363  Uiso  ?  O
O1  1.0  0.25654131895092264  0.35782252028123207  0.6514829990879041  Uiso  ?  O
O1  1.0  0.20392764126775634  0.4066319880895614  0.6464985363465803  Uiso  ?  O
O1  1.0  0.2536469822419014  0.4102472414605339  0.6502380960321616  Uiso  ?  O
Ce1  1.0  0.1832142937262327  0.38104306206025185  0.5760070428990466  Uiso  ?  Ce
Ce1  1.0  0.23367513148619762  0.38066076250974046  0.6273080944811585  Uiso  ?  Ce
O1  1.0  0.20667948010324483  0.35772390707298063  0.5974071952788935  Uiso  ?  O
O1  1.0  0.2513285302278277  0.3583024629969521  0.6050501347920294  Uiso  ?  O
O1  1.0  0.20448765539466734  0.406109388139263  0.5981205279306788  Uiso  ?  O
O1  1.0  0.25472902914422607  0.4049583721198631  0.6043430220886243  Uiso  ?  O
O1  1.0  0.20554290333215114  0.3596808446845004  0.5536272515974154  Uiso  ?  O
O1  1.0  0.25327064027123614  0.3539808852156856  0.5536387573402046  Uiso  ?  O
O1  1.0  0.20435458689887556  0.4067588870931839  0.5547576012046698  Uiso  ?  O
O1  1.0  0.2515943780916873  0.40563031550371315  0.5531026088785017  Uiso  ?  O
Ce1  1.0  0.18171476646737217  0.3819043976821972  0.48268442572944065  Uiso  ?  Ce
Ce1  1.0  0.2296194179361369  0.38383237488174105  0.5273781275494662  Uiso  ?  Ce
O1  1.0  0.20687422164241895  0.3582859266571155  0.508368403173445  Uiso  ?  O
O1  1.0  0.2540528821405157  0.35750578813259093  0.5040423058772425  Uiso  ?  O
O1  1.0  0.20967926881142318  0.4042661592743311  0.5050131597376919  Uiso  ?  O
O1  1.0  0.25435583662743594  0.404283143221882  0.5015285603024776  Uiso  ?  O
O1  1.0  0.20557942931419831  0.360100988211999  0.4536934221834514  Uiso  ?  O
O1  1.0  0.2565968359375612  0.35988489590633566  0.460208129848085  Uiso  ?  O
O1  1.0  0.20585373252004388  0.40533820942442833  0.45663979952796974  Uiso  ?  O
O1  1.0  0.25813257879664475  0.4066037953010148  0.45607086284302245  Uiso  ?  O
Ce1  1.0  0.18318076235858044  0.38525519104570055  0.388347294210882  Uiso  ?  Ce
Ce1  1.0  0.23125381912401063  0.38004273707850883  0.4337752803270632  Uiso  ?  Ce
O1  1.0  0.20504949239740128  0.3556792023179723  0.4095392618526801  Uiso  ?  O
O1  1.0  0.253961894580359  0.3599646841368414  0.41104706068197655  Uiso  ?  O
O1  1.0  0.2054013388984021  0.40677594183054977  0.40747304465595163  Uiso  ?  O
O1  1.0  0.2501732899414661  0.40357139563661865  0.41108218397832574  Uiso  ?  O
O1  1.0  0.20579922197804457  0.359768454410901  0.3615103273771667  Uiso  ?  O
O1  1.0  0.2517630850472806  0.3576697558772571  0.3582959420783359  Uiso  ?  O
O1  1.0  0.2081134878611137  0.40709365781903784  0.3635319631576797  Uiso  ?  O
O1  1.0  0.25448896809721644  0.40446359541872273  0.3625400220957809  Uiso  ?  O
Ce1  1.0  0.18481983044934214  0.3815386310119654  0.2865385274655914  Uiso  ?  Ce
Ce1  1.0  0.23098729894264672  0.3818288483286804  0.33809159735883354  Uiso  ?  Ce
O1  1.0  0.20774606703483092  0.35613125814927454  0.3106267895130521  Uiso  ?  O
O1  1.0  0.25793231043660514  0.3580695717831977  0.3144387308821206  Uiso  ?  O
O1  1.0  0.25275134644678754  0.4022862817511558  0.3145361330740401  Uiso  ?  O
O1  1.0  0.20878146152004237  0.36120863605651055  0.2665869679975257  Uiso  ?  O
O1  1.0  0.25375144959999535  0.355569331265342  0.26777125808200747  Uiso  ?  O
O1  1.0  0.2540936979973248  0.4061280676917077  0.26357055213142216  Uiso  ?  O
Ce1  1.0  0.2296043125810169  0.3798327456589819  0.2420997107519113  Uiso  ?  Ce
O1  1.0  0.20825827243668643  0.35732908065145014  0.21749108260949418  Uiso  ?  O
O1  1.0  0.25451931676861494  0.35917136214842144  0.22063350306656437  Uiso  ?  O
O1  1.0  0.20735084723088676  0.35755782601221775  0.16730206859295205  Uiso  ?  O
O1  1.0  0.2558947311171484  0.35770865380320455  0.17036140895299745  Uiso  ?  O
O1  1.0  0.20591816728650902  0.3577688251527064  0.12149930464465383  Uiso  ?  O
O1  1.0  0.25217513514122153  0.3565032503296576  0.12430179041174266  Uiso  ?  O
O1  1.0  0.30302377259786717  0.3569977502708665  0.9360126378049979  Uiso  ?  O
O1  1.0  0.35101718329678966  0.3534873323438834  0.9356196528600365  Uiso  ?  O
O1  1.0  0.3045132977870147  0.40613214081021864  0.9341644520474914  Uiso  ?  O
O1  1.0  0.3482056285362372  0.4009001023906913  0.9386314851419969  Uiso  ?  O
Ce1  1.0  0.27888786833262935  0.3813419503659785  0.8664316126266969  Uiso  ?  Ce
Ce1  1.0  0.32571211073656203  0.3812885790121931  0.9116791551503626  Uiso  ?  Ce
O1  1.0  0.3036015400206191  0.35554040127188813  0.8889501578401379  Uiso  ?  O
O1  1.0  0.34939199931672843  0.3579223056754816  0.8880386477782312  Uiso  ?  O
O1  1.0  0.30308179089488807  0.4069328414615902  0.8874878323360087  Uiso  ?  O
O1  1.0  0.349165090510181  0.40309099437903495  0.8874958827751689  Uiso  ?  O
O1  1.0  0.30412603352717416  0.35701953114708945  0.8429106705583643  Uiso  ?  O
O1  1.0  0.34876209991439716  0.3561141686395501  0.8423291874096166  Uiso  ?  O
O1  1.0  0.30361720630977623  0.40927499724051514  0.8386992861319399  Uiso  ?  O
O1  1.0  0.35089854599372666  0.4044202816519244  0.8415907213330228  Uiso  ?  O
Ce1  1.0  0.27787407976478845  0.38516308991438397  0.7662166534548503  Uiso  ?  Ce
Ce1  1.0  0.3254164051190694  0.3816478131919634  0.8166375001581875  Uiso  ?  Ce
O1  1.0  0.3033101527143307  0.36028376287687647  0.7942310887280307  Uiso  ?  O
O1  1.0  0.3521174838897953  0.3609824722095693  0.7937204617703979  Uiso  ?  O
O1  1.0  0.30719522190440846  0.4036415231450867  0.7946745193528075  Uiso  ?  O
O1  1.0  0.3482665791555254  0.40726493662389845  0.7921713818112631  Uiso  ?  O
O1  1.0  0.3058782511798966  0.3571684788009307  0.7473081537572955  Uiso  ?  O
O1  1.0  0.35072133362121904  0.3552570970014691  0.7455312140750353  Uiso  ?  O
O1  1.0  0.3034396944665022  0.406483333582718  0.7449734411845416  Uiso  ?  O
O1  1.0  0.35201517450048075  0.4042696196481636  0.7459301067825148  Uiso  ?  O
Ce1  1.0  0.2778377766932093  0.38338413737174687  0.6699947663792825  Uiso  ?  Ce
Ce1  1.0  0.32698238353235387  0.3825697935521966  0.7168090728199749  Uiso  ?  Ce
O1  1.0  0.3012768293849319  0.3618187030990385  0.6968643982117175  Uiso  ?  O
O1  1.0  0.3525468878086059  0.35730357742388286  0.698282097809806  Uiso  ?  O
O1  1.0  0.2963873545561328  0.40641979650800397  0.695887564796865  Uiso  ?  O
O1  1.0  0.3489771526843837  0.40595575851380605  0.6995961703043158  Uiso  ?  O
O1  1.0  0.30259800148125504  0.3589915710070909  0.6471103168189324  Uiso  ?  O
O1  1.0  0.3458093659877555  0.35901481806288754  0.6515444855639002  Uiso  ?  O
O1  1.0  0.3028090214899958  0.40439863051300284  0.6475476232986533  Uiso  ?  O
O1  1.0  0.3490356198138148  0.40560169661387474  0.6494757267849951  Uiso  ?  O
Ce1  1.0  0.27596171709885026  0.3805878163223718  0.5782182103501435  Uiso  ?  Ce
Ce1  1.0  0.3289087791398019  0.3792433429257747  0.6271647368272331  Uiso  ?  Ce
O1  1.0  0.3051618551004504  0.35842528235687715  0.5977796291216356  Uiso  ?  O
O1  1.0  0.3496901801590506  0.35803063928142226  0.5997358679610777  Uiso  ?  O
O1  1.0  0.30380374937586463  0.40434004112570177  0.5986826224263676  Uiso  ?  O
O1  1.0  0.3538828595081257  0.4074797790949583  0.6041135454372686  Uiso  ?  O
O1  1.0  0.305430001788041  0.3599539536773643  0.5528056935400033  Uiso  ?  O
O1  1.0  0.35078348434471085  0.358736708385786  0.5520841743084993  Uiso  ?  O
O1  1.0  0.3013678861083946  0.40796758333122946  0.5553680736123306  Uiso  ?  O
O1  1.0  0.3513406684897363  0.40694232329017915  0.554148683742683  Uiso  ?  O
Ce1  1.0  0.2773585887554856  0.38232876227166607  0.48014072738452024  Uiso  ?  Ce
Ce1  1.0  0.3271883385766203  0.38120268043470396  0.5287266095285783  Uiso  ?  Ce
O1  1.0  0.30021162587115224  0.35646782547375166  0.5038628339864898  Uiso  ?  O
O1  1.0  0.3511367432327615  0.3582627112188507  0.5036494674228134  Uiso  ?  O
O1  1.0  0.30220588531701187  0.4027025635208399  0.5066126792999405  Uiso  ?  O
O1  1.0  0.3519255801605607  0.40633045559939074  0.504651721735305  Uiso  ?  O
O1  1.0  0.3044703864136959  0.35661618052877664  0.45783924037136475  Uiso  ?  O
O1  1.0  0.3512154540509844  0.357359528706787  0.45923424505704225  Uiso  ?  O
O1  1.0  0.30469774940622246  0.40280691615372843  0.4577820291510558  Uiso  ?  O
O1  1.0  0.35005657678125607  0.40718031465343757  0.4579564724632383  Uiso  ?  O
Ce1  1.0  0.279405618170285  0.3834131403233738  0.38643791389539883  Uiso  ?  Ce
Ce1  1.0  0.32483396231019745  0.3826024982535864  0.4332663104448803  Uiso  ?  Ce
O1  1.0  0.30202973245660336  0.35813022665443045  0.4068476327275095  Uiso  ?  O
O1  1.0  0.3503761118782455  0.35686718132431183  0.4122291911226794  Uiso  ?  O
O1  1.0  0.30061802287643186  0.4052553615306787  0.41153217166496064  Uiso  ?  O
O1  1.0  0.3505496880041188  0.40099100995518017  0.41369709859460324  Uiso  ?  O
O1  1.0  0.30336793906117154  0.35807262823354835  0.36175276939929196  Uiso  ?  O
O1  1.0  0.3501439082329498  0.35569278606143256  0.3621169855955227  Uiso  ?  O
O1  1.0  0.3023710589288683  0.40581621759886766  0.36162250625974907  Uiso  ?  O
O1  1.0  0.34857876562563295  0.4047558301746103  0.36243003594277556  Uiso  ?  O
Ce1  1.0  0.2793395451622748  0.38078259191600516  0.2855465364182559  Uiso  ?  Ce
Ce1  1.0  0.32514265284062116  0.3836210713453834  0.3385110295409546  Uiso  ?  Ce
O1  1.0  0.3021116437935726  0.3548871606586064  0.3140847490010247  Uiso  ?  O
O1  1.0  0.351267861061669  0.3609378310107969  0.31324207071494187  Uiso  ?  O
O1  1.0  0.3028263211074382  0.4042242657451039  0.31353887461265867  Uiso  ?  O
O1  1.0  0.3486451393332723  0.40611008070084004  0.3146144142087703  Uiso  ?  O
O1  1.0  0.302785254079212  0.35692473367137606  0.26663315648037655  Uiso  ?  O
O1  1.0  0.34946097371887086  0.3596060485240095  0.26644268034758134  Uiso  ?  O
O1  1.0  0.3032464187245007  0.40654799155657634  0.26521684556851344  Uiso  ?  O
O1  1.0  0.3504732480298256  0.40234787153590346  0.2630783850998874  Uiso  ?  O
Ce1  1.0  0.27497263263211313  0.38175783963993887  0.19413557480118723  Uiso  ?  Ce
Ce1  1.0  0.32336035114434664  0.38259652547747386  0.2425143771764577  Uiso  ?  Ce
O1  1.0  0.3009444876852473  0.3591886783343083  0.2179015092881033  Uiso  ?  O
O1  1.0  0.3490318976478702  0.3587407269884537  0.2173154244659308  Uiso  ?  O
O1  1.0  0.30127799723592097  0.4044504524018134  0.2185895081425933  Uiso  ?  O
O1  1.0  0.3521139371144794  0.4025122423253195  0.2164320124514512  Uiso  ?  O
O1  1.0  0.30292468726138755  0.3595381684988884  0.17110849015938023  Uiso  ?  O
O1  1.0  0.34958783573995866  0.3579158412828677  0.16817799492338376  Uiso  ?  O
O1  1.0  0.40047036198868186  0.3559833385083106  0.936878327550836  Uiso  ?  O
O1  1.0  0.44716569205809803  0.3550710928390549  0.9368957351398358  Uiso  ?  O
O1  1.0  0.39691299507652295  0.4067131349045356  0.9354663391607017  Uiso  ?  O
O1  1.0  0.4486704313231964  0.4077086027035276  0.9347164021780485  Uiso  ?  O
Ce1  1.0  0.36954278823417175  0.3809723126184267  0.8652157963064825  Uiso  ?  Ce
Ce1  1.0  0.42248365350688627  0.3809195754693889  0.9134195717342992  Uiso  ?  Ce
O1  1.0  0.3983488620567072  0.3601548024341171  0.8914968066056744  Uiso  ?  O
O1  1.0  0.4445116065876307  0.35695109287676047  0.8893253280921891  Uiso  ?  O
O1  1.0  0.3957395408831456  0.4066866135695816  0.8867590205186222  Uiso  ?  O
O1  1.0  0.44647642211469596  0.4053622646914519  0.889741370380457  Uiso  ?  O
O1  1.0  0.39661343276181144  0.35909013128015005  0.8437236840626817  Uiso  ?  O
O1  1.0  0.4464164447677353  0.35760046558486464  0.8427803267454487  Uiso  ?  O
O1  1.0  0.3994687740859733  0.4004046131560685  0.8426831643131745  Uiso  ?  O
O1  1.0  0.44355966897144133  0.40591229236610316  0.842173935343242  Uiso  ?  O
Ce1  1.0  0.3716984422919849  0.3835540282676828  0.769277385750323  Uiso  ?  Ce
Ce1  1.0  0.4241126772547814  0.38288600278957596  0.8173583517695571  Uiso  ?  Ce
O1  1.0  0.39827052006208347  0.3593782946573755  0.7922567168250235  Uiso  ?  O
O1  1.0  0.44536487429516236  0.3577145114021956  0.7911682012949945  Uiso  ?  O
O1  1.0  0.39974089259602685  0.4084362195064504  0.7915818697310402  Uiso  ?  O
O1  1.0  0.44646462522484703  0.4043924754814949  0.7935006445076496  Uiso  ?  O
O1  1.0  0.39985324021285895  0.358969213858691  0.7440584488816061  Uiso  ?  O
O1  1.0  0.4464768304439203  0.3586340333945273  0.7486040836625368  Uiso  ?  O
O1  1.0  0.40182578306546696  0.407308166768516  0.7442615120229137  Uiso  ?  O
O1  1.0  0.4480338635670853  0.4047729997858361  0.7448892813571604  Uiso  ?  O
Ce1  1.0  0.3772720721075929  0.37982647472673775  0.6728882943299038  Uiso  ?  Ce
Ce1  1.0  0.42308265567907166  0.38217335453241447  0.7225597112851486  Uiso  ?  Ce
O1  1.0  0.40065498839380903  0.35787874088391564  0.6983233065696745  Uiso  ?  O
O1  1.0  0.447916168666538  0.3570971192224445  0.6957935077596195  Uiso  ?  O
O1  1.0  0.39883866403955254  0.4083607401319093  0.6999304908952743  Uiso  ?  O
O1  1.0  0.4466647521893547  0.4039054269933623  0.6970033144148031  Uiso  ?  O
O1  1.0  0.3968697178075039  0.35698516724279616  0.6481410629267164  Uiso  ?  O
O1  1.0  0.4471520414463856  0.357220661187825  0.6500471010098675  Uiso  ?  O
O1  1.0  0.39738884155368764  0.40807713131404066  0.6508881735500518  Uiso  ?  O
O1  1.0  0.4464120658656479  0.40688577242415425  0.6505928017453072  Uiso  ?  O
Ce1  1.0  0.3742348606488387  0.3817438035983467  0.5773033083296129  Uiso  ?  Ce
Ce1  1.0  0.42410882388946625  0.37847985971012976  0.6219700768199458  Uiso  ?  Ce
O1  1.0  0.400473599880507  0.35400714708489756  0.5987176139944032  Uiso  ?  O
O1  1.0  0.4472463472220929  0.3599840512921623  0.6014624477801577  Uiso  ?  O
O1  1.0  0.3969105679509921  0.4088117305168041  0.6007044277322071  Uiso  ?  O
O1  1.0  0.40033040302048306  0.3561877606667484  0.5564432655280006  Uiso  ?  O
O1  1.0  0.44933883657160967  0.3590101459421664  0.5546584680940884  Uiso  ?  O
O1  1.0  0.3980039014149661  0.4016524784358993  0.5528026295702657  Uiso  ?  O
Ce1  1.0  0.3768281646952606  0.381804275260702  0.48258718014568475  Uiso  ?  Ce
Ce1  1.0  0.42127234355591325  0.38147087993150164  0.5318521006976379  Uiso  ?  Ce
O1  1.0  0.40148724440769884  0.35725291990054764  0.508263808307735  Uiso  ?  O
O1  1.0  0.444504012453688  0.35586643467103385  0.5047245879134322  Uiso  ?  O
O1  1.0  0.39932490602331616  0.35605838173192994  0.4563199846846038  Uiso  ?  O
O1  1.0  0.4491339655469317  0.3567133559622364  0.45607935365882213  Uiso  ?  O
Ce1  1.0  0.37410987272597707  0.3769029288160371  0.38454569773950176  Uiso  ?  Ce
Ce1  1.0  0.42013241514191113  0.3809115730076588  0.43164152786698073  Uiso  ?  Ce
O1  1.0  0.39797531371350037  0.3583574907305791  0.4083169831218646  Uiso  ?  O
O1  1.0  0.44671128627683815  0.35728817323454354  0.40790143947250845  Uiso  ?  O
O1  1.0  0.3974950638015625  0.4084237172310878  0.4091793494977998  Uiso  ?  O
O1  1.0  0.39786735296601794  0.3574688488874299  0.3606089140894085  Uiso  ?  O
O1  1.0  0.4446438542254135  0.3561048351988004  0.36245682007478347  Uiso  ?  O
O1  1.0  0.39909715765791515  0.4033992656344382  0.35956271499291653  Uiso  ?  O
O1  1.0  0.44608282557236195  0.4035567235516596  0.3621851227813137  Uiso  ?  O
Ce1  1.0  0.37677077795860914  0.385967437660121  0.2884005321264662  Uiso  ?  Ce
Ce1  1.0  0.4215188918249485  0.3826413122017663  0.3382817919090471  Uiso  ?  Ce
O1  1.0  0.3997706023332832  0.359837592327426  0.31061252480572427  Uiso  ?  O
O1  1.0  0.4472754358552004  0.3554150106627052  0.3121969471246085  Uiso  ?  O
O1  1.0  0.3939558232103171  0.4020128245010706  0.310959656984864  Uiso  ?  O
O1  1.0  0.4458729955069466  0.4070693018253522  0.3143856478230718  Uiso  ?  O
O1  1.0  0.4007185888225147  0.3590499853647889  0.26504749955218126  Uiso  ?  O
O1  1.0  0.4504344598728165  0.35698065497056014  0.26464565207929486  Uiso  ?  O
O1  1.0  0.3964809191085506  0.40266760957792136  0.2630702313044761  Uiso  ?  O
O1  1.0  0.4447922131051272  0.40563493766913916  0.2639739541440064  Uiso  ?  O
Ce1  1.0  0.375968083790713  0.3812236836055182  0.19380258150172994  Uiso  ?  Ce
Ce1  1.0  0.4241611905481588  0.38215419213761437  0.24252419595450067  Uiso  ?  Ce
O1  1.0  0.3966710778433626  0.3575082867315805  0.21716715483206256  Uiso  ?  O
O1  1.0  0.44545379756427345  0.36077621434998003  0.21859502147717363  Uiso  ?  O
O1  1.0  0.3981534099337247  0.4051826844896973  0.214905027145195  Uiso  ?  O
O1  1.0  0.44748904724486077  0.4077468631124012  0.21538020037021668  Uiso  ?  O
O1  1.0  0.39862333878239314  0.3591718134475743  0.16958321047867597  Uiso  ?  O
O1  1.0  0.44390777493969796  0.35789436673789293  0.16800636263851187  Uiso  ?  O
O1  1.0  0.49577050834924075  0.3551196674295622  0.9371159891408148  Uiso  ?  O
O1  1.0  0.5440142967311525  0.3550997139515404  0.9362268121799981  Uiso  ?  O
O1  1.0  0.4943654136015881  0.4053704314388687  0.939378649355207  Uiso  ?  O
O1  1.0  0.541326828337047  0.40970709753236706  0.9373702242623149  Uiso  ?  O
Ce1  1.0  0.4724177465294666  0.38193082448264565  0.8634147018221743  Uiso  ?  Ce
Ce1  1.0  0.5171080983873275  0.37817262273963936  0.910029600394536  Uiso  ?  Ce
O1  1.0  0.4944375219483176  0.3571206011234394  0.8913019643706355  Uiso  ?  O
O1  1.0  0.5421346365740504  0.3569531225196314  0.889867373570135  Uiso  ?  O
O1  1.0  0.4961221969552505  0.40690319617624465  0.8905413859831409  Uiso  ?  O
O1  1.0  0.5440675315386767  0.4075525320871346  0.8885774958044803  Uiso  ?  O
O1  1.0  0.4935785802246484  0.35990961521206877  0.8422695514297882  Uiso  ?  O
O1  1.0  0.54147290101962  0.35561863769621116  0.839478328908842  Uiso  ?  O
O1  1.0  0.4943173336408095  0.40713932996507113  0.8425666555655092  Uiso  ?  O
O1  1.0  0.540946558250629  0.4043339345261514  0.8417275661578283  Uiso  ?  O
Ce1  1.0  0.470356865291562  0.384829570236104  0.7680578908666501  Uiso  ?  Ce
Ce1  1.0  0.5199230425402118  0.3782115582774198  0.8147328937667924  Uiso  ?  Ce
O1  1.0  0.49856461647797223  0.35898164914313235  0.7946232796423317  Uiso  ?  O
O1  1.0  0.5433005464980339  0.35451930247018676  0.7942630247563539  Uiso  ?  O
O1  1.0  0.49563245443460313  0.4040951032023071  0.7899831729879045  Uiso  ?  O
O1  1.0  0.543086292335495  0.40519731958030514  0.7935964603391719  Uiso  ?  O
O1  1.0  0.49282812263513326  0.35782943740328066  0.7450296533719106  Uiso  ?  O
O1  1.0  0.54087694340798  0.3588868898142232  0.7473908035478507  Uiso  ?  O
O1  1.0  0.4961556641873689  0.4057887907171399  0.7441238222076908  Uiso  ?  O
O1  1.0  0.5443714896491424  0.40874316831047214  0.7462612711673036  Uiso  ?  O
Ce1  1.0  0.4719903841870838  0.38207721725050353  0.6732896748551507  Uiso  ?  Ce
Ce1  1.0  0.5206940307570731  0.37910777279827756  0.7220909889946778  Uiso  ?  Ce
O1  1.0  0.4935042932783375  0.3559398304913408  0.6979450259363872  Uiso  ?  O
O1  1.0  0.5429766887424854  0.3569194500356763  0.6954359143853376  Uiso  ?  O
O1  1.0  0.4924924542548497  0.40463279555774556  0.6952773712981402  Uiso  ?  O
O1  1.0  0.5419821121052683  0.40512279943525054  0.6986126262643193  Uiso  ?  O
O1  1.0  0.4955448091667232  0.3580749784961853  0.649197817600001  Uiso  ?  O
O1  1.0  0.542551356330723  0.3593351550473139  0.6479072740463234  Uiso  ?  O
O1  1.0  0.49900726370865706  0.4042656482188402  0.6477461557293209  Uiso  ?  O
O1  1.0  0.5422967898899798  0.40790752861875385  0.649747406505956  Uiso  ?  O
Ce1  1.0  0.4697069035978911  0.37795025379997543  0.5776180715076283  Uiso  ?  Ce
Ce1  1.0  0.5167613064676492  0.38173636331557853  0.6234187157770393  Uiso  ?  Ce
O1  1.0  0.49549412829992145  0.3569098814939704  0.6006227205146353  Uiso  ?  O
O1  1.0  0.5423203052535808  0.35986258382589636  0.6049953862877981  Uiso  ?  O
O1  1.0  0.49571308600813985  0.35571128446992273  0.5533754390987632  Uiso  ?  O
O1  1.0  0.5432050223229266  0.3592910624501018  0.5557559561916694  Uiso  ?  O
Ce1  1.0  0.4698525711198968  0.38095304924414686  0.48200380658937464  Uiso  ?  Ce
Ce1  1.0  0.5180752355506345  0.3802896511857547  0.528564588209825  Uiso  ?  Ce
O1  1.0  0.4908914265225329  0.35689001325437736  0.5048540285727797  Uiso  ?  O
O1  1.0  0.5440984834306296  0.3569144917297226  0.5077144807206259  Uiso  ?  O
O1  1.0  0.4941921302413658  0.36010123607334193  0.4559025062937878  Uiso  ?  O
O1  1.0  0.5395598352262002  0.36010214780871325  0.4584571621817372  Uiso  ?  O
Ce1  1.0  0.470674827340011  0.3804568012830584  0.3830206234029062  Uiso  ?  Ce
Ce1  1.0  0.5174069520570233  0.3832163077424714  0.43407215577765157  Uiso  ?  Ce
O1  1.0  0.49169741509863085  0.36008691782833857  0.4056102590389251  Uiso  ?  O
O1  1.0  0.5412433465997687  0.35663671120118273  0.41000641315031533  Uiso  ?  O
O1  1.0  0.4914601770802347  0.36082290396449845  0.359658446249409  Uiso  ?  O
O1  1.0  0.5400446044689728  0.35884108803519954  0.35950923647333605  Uiso  ?  O
O1  1.0  0.49405756031134496  0.40728747915478947  0.3619102612385104  Uiso  ?  O
O1  1.0  0.5413298380459526  0.4035039758177952  0.36042976057545845  Uiso  ?  O
Ce1  1.0  0.4727173029958922  0.3813855593056112  0.28939543246923094  Uiso  ?  Ce
Ce1  1.0  0.5147047093865397  0.3834840851240251  0.3389429746190003  Uiso  ?  Ce
O1  1.0  0.49364877097336934  0.36010629475197176  0.309388051060003  Uiso  ?  O
O1  1.0  0.5434042112403964  0.3534657668106162  0.31248362992337214  Uiso  ?  O
O1  1.0  0.4931894567682086  0.4070635716165407  0.3113937511077719  Uiso  ?  O
O1  1.0  0.5435867556781561  0.40590737291935086  0.3157872181972722  Uiso  ?  O
O1  1.0  0.4961014188344504  0.3562233587327836  0.26332087008306915  Uiso  ?  O
O1  1.0  0.5455550141325102  0.3576594884793779  0.2662193964716227  Uiso  ?  O
O1  1.0  0.4968409816822822  0.4057844999316714  0.26578764997635906  Uiso  ?  O
O1  1.0  0.5422633369927227  0.41045930272971504  0.26397783185142226  Uiso  ?  O
Ce1  1.0  0.4718120582014025  0.38272930158210783  0.1945176424195718  Uiso  ?  Ce
Ce1  1.0  0.5157268634609591  0.38394700489600364  0.24399226361983978  Uiso  ?  Ce
O1  1.0  0.49303795450667287  0.3581711980825633  0.21719186107868976  Uiso  ?  O
O1  1.0  0.5430912952155087  0.35859880299295815  0.2185266314883378  Uiso  ?  O
O1  1.0  0.49339156895934594  0.4054747868427402  0.2174323944058371  Uiso  ?  O
O1  1.0  0.5419190761343592  0.40506699635288584  0.21954825866454328  Uiso  ?  O
O1  1.0  0.4973509198949929  0.3552392636099032  0.16926703665750503  Uiso  ?  O
O1  1.0  0.5460615333392373  0.35903847678172995  0.17200003105975045  Uiso  ?  O
O1  1.0  0.5866469324053477  0.357363799357707  0.9355142834392353  Uiso  ?  O
O1  1.0  0.6362588421924725  0.3602808187702576  0.938227589370454  Uiso  ?  O
O1  1.0  0.5909954897487808  0.40527029116730706  0.9370368766295234  Uiso  ?  O
O1  1.0  0.6379378727450243  0.4056280285759403  0.936954345306597  Uiso  ?  O
Ce1  1.0  0.5696914206028713  0.381587641201053  0.8633915275762127  Uiso  ?  Ce
Ce1  1.0  0.6136262869647304  0.37894553786876  0.9132604936054226  Uiso  ?  Ce
O1  1.0  0.5892682920975643  0.35853785204589783  0.8876393492384906  Uiso  ?  O
O1  1.0  0.6380680388164044  0.3603443275557162  0.8911132741841454  Uiso  ?  O
O1  1.0  0.5902776672345165  0.4054716218768124  0.8883178901322232  Uiso  ?  O
O1  1.0  0.6369569043048958  0.40436732480089366  0.885729233003876  Uiso  ?  O
O1  1.0  0.5931998860103413  0.35817660933889633  0.8418906660351785  Uiso  ?  O
O1  1.0  0.6431233982060314  0.35708439090631505  0.8369179599942973  Uiso  ?  O
O1  1.0  0.5882797955876585  0.4058709872569036  0.8399145359793271  Uiso  ?  O
O1  1.0  0.6386288154939612  0.4078043932100114  0.8380719639849777  Uiso  ?  O
Ce1  1.0  0.5701061456395835  0.38070583419587556  0.7730107137315129  Uiso  ?  Ce
Ce1  1.0  0.6165341022194909  0.3813439266423299  0.8155123730314835  Uiso  ?  Ce
O1  1.0  0.5908749529847773  0.3612126564774742  0.7923676676847342  Uiso  ?  O
O1  1.0  0.6384566498927555  0.35958823998395056  0.7919958022563027  Uiso  ?  O
O1  1.0  0.5880409969538959  0.40366785608200617  0.7885990091707128  Uiso  ?  O
O1  1.0  0.636660384964816  0.403238805871086  0.7926012168449366  Uiso  ?  O
O1  1.0  0.5908710822113102  0.357742965763048  0.7402676013225694  Uiso  ?  O
O1  1.0  0.6397552513822582  0.35330939858511456  0.7449573690262535  Uiso  ?  O
O1  1.0  0.5888337913453331  0.4060542287384262  0.7451092618383174  Uiso  ?  O
O1  1.0  0.636830450799196  0.4062118660328647  0.7416227596140298  Uiso  ?  O
Ce1  1.0  0.5666035156253263  0.38189453885923946  0.675441486754699  Uiso  ?  Ce
Ce1  1.0  0.6126877274142828  0.38139884950631125  0.7208439975904797  Uiso  ?  Ce
O1  1.0  0.5890225764241127  0.3562284792999725  0.6959306786406442  Uiso  ?  O
O1  1.0  0.6388964904688276  0.3574353311463625  0.699267941122196  Uiso  ?  O
O1  1.0  0.591989753624516  0.4073429849020594  0.7002252601002705  Uiso  ?  O
O1  1.0  0.6384774297048305  0.4057144905453926  0.6962159282302445  Uiso  ?  O
O1  1.0  0.5904058594954996  0.3579294002428151  0.6480711375391333  Uiso  ?  O
O1  1.0  0.637696680904097  0.3595103011017242  0.6480026921562609  Uiso  ?  O
O1  1.0  0.5908292419467868  0.40756832091079004  0.6487804820946086  Uiso  ?  O
O1  1.0  0.6371637915113423  0.40527072926971897  0.6471297210163925  Uiso  ?  O
Ce1  1.0  0.5675468215029643  0.38030703082979744  0.5760970859103978  Uiso  ?  Ce
Ce1  1.0  0.615361455072901  0.38126838585142403  0.6254448209185038  Uiso  ?  Ce
O1  1.0  0.5895871691668905  0.35703546761670363  0.5998829541780281  Uiso  ?  O
O1  1.0  0.6374190231687145  0.3558361020725946  0.601173694513261  Uiso  ?  O
O1  1.0  0.5898392322730192  0.405308430840919  0.6000044401240288  Uiso  ?  O
O1  1.0  0.6412042073622096  0.4043063691724014  0.6018868286943189  Uiso  ?  O
O1  1.0  0.5895301983796336  0.3574296792176138  0.5540645043079547  Uiso  ?  O
O1  1.0  0.636009314096183  0.35757652743900026  0.5553411827434037  Uiso  ?  O
O1  1.0  0.6366113885135463  0.40765236331756133  0.5556067459261728  Uiso  ?  O
Ce1  1.0  0.5669413790605281  0.3808855613509651  0.4775441834421488  Uiso  ?  Ce
Ce1  1.0  0.6145062239717615  0.3789496173390019  0.5275390977609171  Uiso  ?  Ce
O1  1.0  0.5916014235989638  0.35517308831604116  0.5090622927445853  Uiso  ?  O
O1  1.0  0.6378723359189096  0.35696916260577544  0.5098062686010322  Uiso  ?  O
O1  1.0  0.5887211046727958  0.3598389276078907  0.4571599901517614  Uiso  ?  O
O1  1.0  0.6393409581379992  0.35686135092344096  0.4586255437785773  Uiso  ?  O
Ce1  1.0  0.5678193267360252  0.3784824116181481  0.38763155876444416  Uiso  ?  Ce
Ce1  1.0  0.6137633691256262  0.38023000448530336  0.4340477394677868  Uiso  ?  Ce
O1  1.0  0.5909103086004952  0.35751726217624363  0.4100696268663659  Uiso  ?  O
O1  1.0  0.637720608696008  0.3553077916027029  0.40785031620706186  Uiso  ?  O
O1  1.0  0.5894959306703038  0.35627831601119786  0.36047131112453373  Uiso  ?  O
O1  1.0  0.6387256897256162  0.3552308658223831  0.3601493267642961  Uiso  ?  O
O1  1.0  0.5893258554650275  0.40807211358352097  0.3622064602463725  Uiso  ?  O
O1  1.0  0.6398749622050649  0.40779073274557537  0.36071273288366656  Uiso  ?  O
Ce1  1.0  0.567428312106458  0.3791716879227339  0.28673285704474893  Uiso  ?  Ce
Ce1  1.0  0.6145589092560465  0.3835897938155599  0.3369113785541188  Uiso  ?  Ce
O1  1.0  0.592374209545272  0.3592881848460404  0.3139658444748585  Uiso  ?  O
O1  1.0  0.6360917386682289  0.35919915188056806  0.3150039487940239  Uiso  ?  O
O1  1.0  0.5943924269147917  0.40583726802019254  0.31048597994964955  Uiso  ?  O
O1  1.0  0.6372545415235349  0.4066973146330572  0.3131151142304979  Uiso  ?  O
O1  1.0  0.5901735248483523  0.35792323176951407  0.2638235565906588  Uiso  ?  O
O1  1.0  0.6395734699481188  0.3576434762623551  0.26389217647808016  Uiso  ?  O
O1  1.0  0.5897430437571533  0.4084720842143174  0.2642350879584664  Uiso  ?  O
O1  1.0  0.6403848527547753  0.40452029572812254  0.26523051436704836  Uiso  ?  O
Ce1  1.0  0.5671774965507149  0.38072641015970254  0.195073422246564  Uiso  ?  Ce
Ce1  1.0  0.6156793632156073  0.38214784955168646  0.2388765949176247  Uiso  ?  Ce
O1  1.0  0.5884373628991978  0.35724882776114864  0.21992926232285534  Uiso  ?  O
O1  1.0  0.6376316747279217  0.35742722477305505  0.2183217545776251  Uiso  ?  O
O1  1.0  0.6851703031701576  0.3551660632660668  0.9377296217518596  Uiso  ?  O
O1  1.0  0.7324200734187246  0.35779961626497087  0.9400859619791111  Uiso  ?  O
O1  1.0  0.686997844738728  0.4047799212052804  0.9379355646970967  Uiso  ?  O
Ce1  1.0  0.663101738581599  0.3814673051822038  0.8671614115879704  Uiso  ?  Ce
Ce1  1.0  0.7117984180247858  0.3820730441260466  0.910313231839031  Uiso  ?  Ce
O1  1.0  0.6858088854104842  0.3590078537334326  0.8910117794978517  Uiso  ?  O
O1  1.0  0.7329520656492042  0.35708063347383545  0.8876239050283301  Uiso  ?  O
O1  1.0  0.6850910935049029  0.4074036885433032  0.8906137969652841  Uiso  ?  O
O1  1.0  0.6840721075899185  0.3543916036825876  0.8422254703904607  Uiso  ?  O
O1  1.0  0.732201468804191  0.3567590406307843  0.8411591514374103  Uiso  ?  O
O1  1.0  0.6874017111676065  0.40534358466949244  0.8396634555880323  Uiso  ?  O
O1  1.0  0.7324193717349127  0.4064009873493609  0.8369502601670893  Uiso  ?  O
Ce1  1.0  0.6612965081888436  0.3835023344150136  0.7670622496671755  Uiso  ?  Ce
Ce1  1.0  0.7091149857580709  0.37992124345268125  0.8172441066216163  Uiso  ?  Ce
O1  1.0  0.6869526538066225  0.3606556254376279  0.7911585758374429  Uiso  ?  O
O1  1.0  0.7373861783990142  0.35839694453080934  0.7922791711810927  Uiso  ?  O
O1  1.0  0.6864809294037151  0.40385337545907063  0.7932922186096554  Uiso  ?  O
O1  1.0  0.7356312708826777  0.4073119313736981  0.7916996106049177  Uiso  ?  O
O1  1.0  0.6859824315468195  0.3575945150515786  0.7453932803727689  Uiso  ?  O
O1  1.0  0.7330805241039801  0.35815547494588795  0.744991162573391  Uiso  ?  O
O1  1.0  0.687962124701708  0.40290223514982254  0.7458712832480692  Uiso  ?  O
O1  1.0  0.7334822396151276  0.4057018155259119  0.7435575605212024  Uiso  ?  O
Ce1  1.0  0.6609244801207695  0.3832725126677655  0.6742725223806135  Uiso  ?  Ce
Ce1  1.0  0.7138816192281633  0.3782264592051964  0.7169488810135692  Uiso  ?  Ce
O1  1.0  0.6852697970130813  0.3613992354365559  0.698237181438934  Uiso  ?  O
O1  1.0  0.7366904008271805  0.3588575679472857  0.6954784710985414  Uiso  ?  O
O1  1.0  0.6852963509240939  0.4028724798757537  0.6928973825093236  Uiso  ?  O
O1  1.0  0.7350392892899502  0.4056401835460421  0.698756659752452  Uiso  ?  O
O1  1.0  0.6816729878908017  0.3545696765827517  0.6499443761063227  Uiso  ?  O
O1  1.0  0.7347689624653196  0.35886895755683174  0.6503027906349251  Uiso  ?  O
O1  1.0  0.6844080587098372  0.4061083457486543  0.65047165475993  Uiso  ?  O
O1  1.0  0.7321493449568178  0.4086041083749886  0.6475611072444317  Uiso  ?  O
Ce1  1.0  0.6627072902956453  0.3818206913062055  0.5762002357191824  Uiso  ?  Ce
Ce1  1.0  0.7085304676770998  0.38157650078200556  0.624347160204095  Uiso  ?  Ce
O1  1.0  0.685222770068564  0.3578756827989504  0.6007123044676659  Uiso  ?  O
O1  1.0  0.7328916451441738  0.3580550215672153  0.601479883821407  Uiso  ?  O
O1  1.0  0.685666085449867  0.40434917924319824  0.6043269936776197  Uiso  ?  O
O1  1.0  0.7292350975406438  0.40421551759526947  0.6023487308237065  Uiso  ?  O
O1  1.0  0.6847405314509024  0.3575106837697721  0.5552494307493111  Uiso  ?  O
O1  1.0  0.7343745271229358  0.35684219686052276  0.5535913814838586  Uiso  ?  O
O1  1.0  0.6859394180683089  0.40621441344104264  0.5531797303531845  Uiso  ?  O
O1  1.0  0.7335126869879431  0.4033396452604639  0.5527196285016011  Uiso  ?  O
Ce1  1.0  0.663279243113311  0.3808940706391242  0.4805616598504893  Uiso  ?  Ce
Ce1  1.0  0.7078633145164437  0.3818619311695035  0.5257683869004599  Uiso  ?  Ce
O1  1.0  0.6871342003227172  0.35777651951255646  0.5053870969128085  Uiso  ?  O
O1  1.0  0.7335268252284168  0.35971967191978615  0.5074720109583882  Uiso  ?  O
O1  1.0  0.6863280272067436  0.403027222173613  0.5043136889038021  Uiso  ?  O
O1  1.0  0.7354660424291856  0.4026619928279666  0.5045698807863577  Uiso  ?  O
O1  1.0  0.6851436966076045  0.3576407182973819  0.4559827890162931  Uiso  ?  O
O1  1.0  0.7308495593895018  0.35806751495932404  0.45692451691837294  Uiso  ?  O
O1  1.0  0.6853880790647673  0.40413515805753514  0.4586684379314253  Uiso  ?  O
O1  1.0  0.7343675193579549  0.4054269973027786  0.4581016975092681  Uiso  ?  O
Ce1  1.0  0.6585025070717756  0.38376520471098946  0.3847476055562462  Uiso  ?  Ce
Ce1  1.0  0.7062808495278905  0.3833005312025329  0.4326078231858585  Uiso  ?  Ce
O1  1.0  0.6871871657051826  0.3558574312621952  0.4120925259371576  Uiso  ?  O
O1  1.0  0.7351943185672178  0.3573755775221773  0.40893737945428116  Uiso  ?  O
O1  1.0  0.6887671606467657  0.4043886316881792  0.41146510202525827  Uiso  ?  O
O1  1.0  0.7355449788505714  0.4015380656077172  0.40994235903814946  Uiso  ?  O
O1  1.0  0.6856867659154071  0.35953570321547973  0.3633968291679291  Uiso  ?  O
O1  1.0  0.737768113920697  0.35450164969078146  0.3591054512001117  Uiso  ?  O
O1  1.0  0.6879538383512699  0.4064579583153309  0.3602563309398264  Uiso  ?  O
O1  1.0  0.7310951546293909  0.4072219475674022  0.36046822938109074  Uiso  ?  O
Ce1  1.0  0.6629523660464195  0.3816517608529298  0.2873997119364096  Uiso  ?  Ce
Ce1  1.0  0.7097527264092238  0.3780929275945116  0.3375132173599624  Uiso  ?  Ce
O1  1.0  0.6881671651315356  0.3571732389844479  0.31232815959169935  Uiso  ?  O
O1  1.0  0.7336835411599711  0.3568692294674701  0.31154409467715016  Uiso  ?  O
O1  1.0  0.6855907772977896  0.40511093053667535  0.3110956445790265  Uiso  ?  O
O1  1.0  0.729881287393304  0.40617041198482906  0.31464446436352167  Uiso  ?  O
O1  1.0  0.6859155039952215  0.35588107148683  0.264564630396398  Uiso  ?  O
O1  1.0  0.7332959448716697  0.35864673802637764  0.2655321447636845  Uiso  ?  O
O1  1.0  0.6876856494455625  0.4072462152066048  0.2642556420209927  Uiso  ?  O
O1  1.0  0.7348661469188794  0.4050016069512447  0.26504815246669783  Uiso  ?  O
Ce1  1.0  0.7135034653610025  0.3802344788859652  0.24178077604414916  Uiso  ?  Ce
O1  1.0  0.6875484782677787  0.3558479536787693  0.2178644578000327  Uiso  ?  O
O1  1.0  0.7356355465217213  0.36048516583103707  0.2201976774556833  Uiso  ?  O
O1  1.0  0.7834789738536516  0.35575668471565836  0.9315314839889912  Uiso  ?  O
Ce1  1.0  0.7584597563866279  0.3788525749889494  0.8641010672215778  Uiso  ?  Ce
O1  1.0  0.7828430317101619  0.35718546953192726  0.8888655853958404  Uiso  ?  O
O1  1.0  0.7800883672005111  0.3604266564398421  0.8383014763795851  Uiso  ?  O
Ce1  1.0  0.7551786999702231  0.3818686600918783  0.770955045054018  Uiso  ?  Ce
Ce1  1.0  0.8061581665326801  0.38201344581420155  0.8180256156152299  Uiso  ?  Ce
O1  1.0  0.7824760422392126  0.3596103816478027  0.7907232705848978  Uiso  ?  O
O1  1.0  0.7834693169116465  0.3614381413638559  0.7446518118251577  Uiso  ?  O
O1  1.0  0.7832234598657443  0.4076613709731314  0.7455782123017942  Uiso  ?  O
Ce1  1.0  0.7547285306505709  0.3808725720552563  0.669852568251741  Uiso  ?  Ce
Ce1  1.0  0.8035357433017248  0.3801442035655775  0.7204356850617241  Uiso  ?  Ce
O1  1.0  0.7810952635130564  0.354858867648025  0.6985233799063739  Uiso  ?  O
O1  1.0  0.7812265438039413  0.4070865030832089  0.6933773938959038  Uiso  ?  O
O1  1.0  0.7782391476458307  0.3604568073231546  0.6480836040501653  Uiso  ?  O
O1  1.0  0.7817744018937288  0.40402669649707157  0.6491573915508232  Uiso  ?  O
Ce1  1.0  0.7555128733891692  0.38227023385553793  0.5764850720134013  Uiso  ?  Ce
Ce1  1.0  0.8074551956731943  0.38080107832376153  0.6251550228146687  Uiso  ?  Ce
O1  1.0  0.7806219297435824  0.3602669125142128  0.5992034647316925  Uiso  ?  O
O1  1.0  0.7821674543247695  0.40862406260015316  0.6009919798803771  Uiso  ?  O
O1  1.0  0.782091292778958  0.35867933396626434  0.5522034825490957  Uiso  ?  O
O1  1.0  0.7795909961164991  0.4080938503667937  0.5525991077161803  Uiso  ?  O
Ce1  1.0  0.7603413769328958  0.38175062625691014  0.47992264596816464  Uiso  ?  Ce
Ce1  1.0  0.8038808520862478  0.38329425760108804  0.5297970697818611  Uiso  ?  Ce
O1  1.0  0.7797010621495101  0.35928570494331935  0.5057975463917656  Uiso  ?  O
O1  1.0  0.7820009558227824  0.4069819328444989  0.5050113758097565  Uiso  ?  O
O1  1.0  0.7798729737749581  0.3590143324534101  0.455246812721462  Uiso  ?  O
O1  1.0  0.7815665235428199  0.4081937423170137  0.4561259608236849  Uiso  ?  O
Ce1  1.0  0.7565445519937719  0.3823928749234001  0.384484716187214  Uiso  ?  Ce
Ce1  1.0  0.8089636303324136  0.38105169741632217  0.43300698849484553  Uiso  ?  Ce
O1  1.0  0.7817445174524842  0.3575370097607269  0.4118650497562737  Uiso  ?  O
O1  1.0  0.7816056995783571  0.4021238651878946  0.41004600799718754  Uiso  ?  O
O1  1.0  0.7838495472342926  0.35729977507730803  0.3620671386382411  Uiso  ?  O
O1  1.0  0.7820765683950303  0.4063194266854737  0.3595273611440605  Uiso  ?  O
Ce1  1.0  0.7568629053091411  0.3823705323301966  0.2909252525391061  Uiso  ?  Ce
Ce1  1.0  0.8080560398423903  0.38254379143811407  0.33827774433612023  Uiso  ?  Ce
O1  1.0  0.7822817180545333  0.3555682857340185  0.31330431842307366  Uiso  ?  O
O1  1.0  0.7829389047554802  0.4075866308306836  0.31282969978773717  Uiso  ?  O
O1  1.0  0.7820665357442483  0.35786553928345655  0.26619779642318286  Uiso  ?  O
O1  1.0  0.7798415684577111  0.3596599008697833  0.2151927433174487  Uiso  ?  O
O1  1.0  0.20820664751000306  0.2635752336653722  0.9374315052826037  Uiso  ?  O
O1  1.0  0.25443787357462677  0.26040831779738755  0.937713260834714  Uiso  ?  O
O1  1.0  0.21004339245414078  0.31136539413314096  0.9413067680749388  Uiso  ?  O
O1  1.0  0.2540133549948582  0.31184067710720936  0.937971779969606  Uiso  ?  O
Ce1  1.0  0.1823394918527058  0.28451480141529756  0.8648244288672176  Uiso  ?  Ce
Ce1  1.0  0.2308884032835318  0.2821811983865748  0.912953097169268  Uiso  ?  Ce
O1  1.0  0.20671642774135823  0.265478075259129  0.8884351821431911  Uiso  ?  O
O1  1.0  0.2550972396564821  0.26501829853269215  0.8898640739526936  Uiso  ?  O
O1  1.0  0.20340676712533245  0.3095294619631118  0.8874370235014375  Uiso  ?  O
O1  1.0  0.25586686572954753  0.3102104884701642  0.8855855615956204  Uiso  ?  O
O1  1.0  0.20534403596215653  0.2602925768958128  0.8459581163881191  Uiso  ?  O
O1  1.0  0.2536086019652432  0.2647955894780779  0.8409107237243809  Uiso  ?  O
O1  1.0  0.20714588417520352  0.30789923904159144  0.8426939808518618  Uiso  ?  O
O1  1.0  0.2552053949325389  0.31021531371674077  0.8409235648295057  Uiso  ?  O
Ce1  1.0  0.18294893438826013  0.33506133613001815  0.9138344234677737  Uiso  ?  Ce
Ce1  1.0  0.22894597508642198  0.3363383602008046  0.8643041531391352  Uiso  ?  Ce
Ce1  1.0  0.18163672440185105  0.2866568131619392  0.771871556834876  Uiso  ?  Ce
Ce1  1.0  0.23260557201850812  0.2838059318701021  0.8177347779058552  Uiso  ?  Ce
O1  1.0  0.20575816570386601  0.26071455762098733  0.7953622574433932  Uiso  ?  O
O1  1.0  0.25491014439956133  0.2611604050546394  0.7913840524873653  Uiso  ?  O
O1  1.0  0.20405768820379647  0.3122584799369166  0.7933991809507811  Uiso  ?  O
O1  1.0  0.2524403796931897  0.3072285122801973  0.7943754379003737  Uiso  ?  O
O1  1.0  0.20644109304814154  0.26254712932328234  0.7438917568525731  Uiso  ?  O
O1  1.0  0.25493157793906074  0.2598709824001105  0.7455400013430988  Uiso  ?  O
O1  1.0  0.20732371540310707  0.31043826692765075  0.7449223145073418  Uiso  ?  O
O1  1.0  0.2529968084370732  0.3134296909516576  0.7455779702009784  Uiso  ?  O
Ce1  1.0  0.18342096975186511  0.3330509058265913  0.816734596847898  Uiso  ?  Ce
Ce1  1.0  0.23119607372167214  0.3379385546099301  0.7699756560227017  Uiso  ?  Ce
Ce1  1.0  0.18263960913795718  0.2859964317925143  0.673303912936573  Uiso  ?  Ce
Ce1  1.0  0.23165444468907126  0.2855767913614253  0.7186307443479362  Uiso  ?  Ce
O1  1.0  0.20593041061681788  0.26019865913838924  0.6966102302303877  Uiso  ?  O
O1  1.0  0.2550091219481131  0.2597363780838548  0.6979183608626847  Uiso  ?  O
O1  1.0  0.20676922206472867  0.30932118342862874  0.6983338934575304  Uiso  ?  O
O1  1.0  0.25509251572425334  0.3091305958174856  0.6982163392901446  Uiso  ?  O
O1  1.0  0.20629059915135228  0.26288079337857634  0.6521505068006419  Uiso  ?  O
O1  1.0  0.25568743039906994  0.26086817138825874  0.6480028988474492  Uiso  ?  O
O1  1.0  0.20448097285039069  0.30823451658676637  0.6506147517670176  Uiso  ?  O
O1  1.0  0.2520246553020505  0.3084402812367124  0.6491034529078482  Uiso  ?  O
Ce1  1.0  0.1823763190506091  0.3345368794465875  0.7183138513902086  Uiso  ?  Ce
Ce1  1.0  0.2308869891588338  0.3339724096275315  0.6719371498199131  Uiso  ?  Ce
Ce1  1.0  0.18232424050960983  0.2870697109463588  0.5753763112493949  Uiso  ?  Ce
Ce1  1.0  0.22940976557214768  0.28363606467846025  0.62798587801019  Uiso  ?  Ce
O1  1.0  0.20571138353562443  0.26115739678015165  0.6043225540901613  Uiso  ?  O
O1  1.0  0.2572055540253938  0.2617148782771485  0.6027843178890505  Uiso  ?  O
O1  1.0  0.20542000558805984  0.31135290499671714  0.6022716471906788  Uiso  ?  O
O1  1.0  0.2556438254156344  0.31074701269104205  0.6012755920061194  Uiso  ?  O
O1  1.0  0.20450089784910977  0.25908503201214805  0.5559539158980074  Uiso  ?  O
O1  1.0  0.25178074977654424  0.2597342504160246  0.552402287371837  Uiso  ?  O
O1  1.0  0.20601428100432073  0.3111351160362987  0.5548401791220114  Uiso  ?  O
O1  1.0  0.2559953809602758  0.313024857727224  0.5536321489330717  Uiso  ?  O
Ce1  1.0  0.18186064350863343  0.3367138012402662  0.6268619518244936  Uiso  ?  Ce
Ce1  1.0  0.22599530028446493  0.33110589855407474  0.5794317007796005  Uiso  ?  Ce
Ce1  1.0  0.18423812970829676  0.2851675796497086  0.4810237585471993  Uiso  ?  Ce
Ce1  1.0  0.22826180277159544  0.2860676551097755  0.5297839201020615  Uiso  ?  Ce
O1  1.0  0.20402640175317485  0.2621277391532541  0.505708227795717  Uiso  ?  O
O1  1.0  0.2561899855423542  0.2599143416356075  0.5023875087658397  Uiso  ?  O
O1  1.0  0.2084202525888091  0.31105136363862157  0.5067871957090982  Uiso  ?  O
O1  1.0  0.24913500377311534  0.30689516303826053  0.5059732942685763  Uiso  ?  O
O1  1.0  0.2062744809962331  0.26418165225876256  0.457339808341037  Uiso  ?  O
O1  1.0  0.25378576158949556  0.26315683965365083  0.4600655264554742  Uiso  ?  O
O1  1.0  0.20344384068056184  0.31063383175621523  0.45922961736087753  Uiso  ?  O
O1  1.0  0.2542926372882684  0.3103212485830664  0.4580486292688226  Uiso  ?  O
Ce1  1.0  0.1829682313481931  0.3319240562927333  0.5286311247623442  Uiso  ?  Ce
Ce1  1.0  0.22988933369949324  0.33455643531891766  0.4803140215344006  Uiso  ?  Ce
Ce1  1.0  0.183184596892405  0.2852264162654306  0.38458566664858984  Uiso  ?  Ce
Ce1  1.0  0.23225506390704875  0.2875197423036666  0.4326711048968273  Uiso  ?  Ce
O1  1.0  0.2100932175804712  0.2631251647112902  0.41060677240381904  Uiso  ?  O
O1  1.0  0.2541711406108863  0.2634100977128974  0.40839795341490037  Uiso  ?  O
O1  1.0  0.20968414455077308  0.3118015078972628  0.4076354957608652  Uiso  ?  O
O1  1.0  0.2537159471122909  0.31030022120909345  0.4103779570238925  Uiso  ?  O
O1  1.0  0.20397073456339593  0.26370621003940786  0.36107470975190226  Uiso  ?  O
O1  1.0  0.2577097370788278  0.26089399524784024  0.35879187682040564  Uiso  ?  O
O1  1.0  0.2063328749345347  0.30842460092372487  0.35946398172686456  Uiso  ?  O
O1  1.0  0.256164268480599  0.31118246791732124  0.3607304583823401  Uiso  ?  O
Ce1  1.0  0.18237855957609359  0.33768801410323174  0.43458112330364773  Uiso  ?  Ce
Ce1  1.0  0.23109179444652492  0.33352290964058723  0.38544832740408114  Uiso  ?  Ce
Ce1  1.0  0.18201104434017096  0.28607190899326346  0.28947960002280787  Uiso  ?  Ce
Ce1  1.0  0.23266645130545932  0.28478531908644833  0.3402577199185944  Uiso  ?  Ce
O1  1.0  0.20376096317801143  0.2619217164345328  0.31544736858819855  Uiso  ?  O
O1  1.0  0.2579997795828739  0.26293804519068514  0.3154939169840436  Uiso  ?  O
O1  1.0  0.20629648335929612  0.31261150475416993  0.31297137529931296  Uiso  ?  O
O1  1.0  0.2565494265846447  0.31041795895082863  0.3151394160987624  Uiso  ?  O
O1  1.0  0.20662179043164497  0.2608357473769988  0.26366016727765745  Uiso  ?  O
O1  1.0  0.2539383000119934  0.25955154203271247  0.26575548592273435  Uiso  ?  O
O1  1.0  0.20640554896724134  0.30664309750008467  0.2642731200156921  Uiso  ?  O
O1  1.0  0.25163368890924387  0.30768997487447064  0.2672581732633285  Uiso  ?  O
Ce1  1.0  0.18444147218947796  0.33465880979507423  0.3386518372235346  Uiso  ?  Ce
Ce1  1.0  0.23221705526739378  0.3359185600792198  0.2901405727738999  Uiso  ?  Ce
Ce1  1.0  0.18087163889269112  0.2872319168765214  0.1963449928012865  Uiso  ?  Ce
Ce1  1.0  0.2299165346774966  0.28603801370883863  0.23869503653793359  Uiso  ?  Ce
O1  1.0  0.20507321705732706  0.2622435908863146  0.21688591861228226  Uiso  ?  O
O1  1.0  0.251980547984018  0.2617028802450704  0.21900703537714045  Uiso  ?  O
O1  1.0  0.20721378281487285  0.30886438202232536  0.21841875181006287  Uiso  ?  O
O1  1.0  0.256079533678485  0.3079500780099185  0.21955491320806975  Uiso  ?  O
O1  1.0  0.2044041405610329  0.26002326820052735  0.16809500654528475  Uiso  ?  O
O1  1.0  0.2540786271326153  0.2607798963600861  0.17169149351461996  Uiso  ?  O
O1  1.0  0.20577468092360093  0.30839928976466996  0.16895162989543197  Uiso  ?  O
O1  1.0  0.2548079243238829  0.30971214240800765  0.17053625882493906  Uiso  ?  O
Ce1  1.0  0.1815731942343219  0.33377350735145683  0.24357899513746578  Uiso  ?  Ce
Ce1  1.0  0.22597083848553753  0.33853046565025907  0.1939333152602561  Uiso  ?  Ce
Ce1  1.0  0.17970608674461125  0.28581550887249085  0.09929164741879488  Uiso  ?  Ce
Ce1  1.0  0.2298565631656028  0.28466346354695365  0.14471939163573103  Uiso  ?  Ce
O1  1.0  0.20799061531538834  0.2597102424159226  0.12238693916700773  Uiso  ?  O
O1  1.0  0.2530192314683557  0.26284503021436645  0.12442342075534131  Uiso  ?  O
O1  1.0  0.20802209367334742  0.3129826727751066  0.12030598637442702  Uiso  ?  O
O1  1.0  0.2523967698115878  0.3094579038539664  0.12013379261221846  Uiso  ?  O
Ce1  1.0  0.1809629450343295  0.3350396022789737  0.14618061666913293  Uiso  ?  Ce
Ce1  1.0  0.22949688071677965  0.33364374873565816  0.1003036639523786  Uiso  ?  Ce
O1  1.0  0.30490842178395744  0.2600239543749642  0.9342466766820255  Uiso  ?  O
O1  1.0  0.3478390187198636  0.26273933697348023  0.938269901326317  Uiso  ?  O
O1  1.0  0.3023787848660546  0.3104663144626011  0.9335730354106042  Uiso  ?  O
O1  1.0  0.35216409234212864  0.30933817783474477  0.9393426133906838  Uiso  ?  O
Ce1  1.0  0.2781768479720663  0.28601311242041305  0.8641348160043233  Uiso  ?  Ce
Ce1  1.0  0.3279925020833969  0.286954427915135  0.9129293132668074  Uiso  ?  Ce
O1  1.0  0.30302488861736804  0.2613001182974772  0.8831511157789811  Uiso  ?  O
O1  1.0  0.3512013929605577  0.2638301510944971  0.8878241992515771  Uiso  ?  O
O1  1.0  0.30219255756101626  0.3119933644324586  0.8913984853566375  Uiso  ?  O
O1  1.0  0.349166852382929  0.31034462129821977  0.8855539794457259  Uiso  ?  O
O1  1.0  0.30238952870702185  0.2625469511435938  0.8411709176186486  Uiso  ?  O
O1  1.0  0.3494679732857053  0.26003898099472406  0.8431706930765409  Uiso  ?  O
O1  1.0  0.299918980992295  0.3087607463990021  0.8403854269845792  Uiso  ?  O
O1  1.0  0.3473803193298418  0.313078031811579  0.8431209246002485  Uiso  ?  O
Ce1  1.0  0.2788224953510923  0.3320851406450815  0.9112808902487548  Uiso  ?  Ce
Ce1  1.0  0.32488718129070815  0.334670942786348  0.8684395432803264  Uiso  ?  Ce
Ce1  1.0  0.2783487227592353  0.2881028577747845  0.7710925630332823  Uiso  ?  Ce
Ce1  1.0  0.32614352297753574  0.28432922192713256  0.8160554846924213  Uiso  ?  Ce
O1  1.0  0.3015685317040742  0.26324537627051753  0.790402262923229  Uiso  ?  O
O1  1.0  0.35073149363410644  0.26157340219737113  0.7909629775650515  Uiso  ?  O
O1  1.0  0.3049755565427429  0.30878951535059507  0.7946861366536051  Uiso  ?  O
O1  1.0  0.351182856449384  0.31094463961000923  0.7937890822001274  Uiso  ?  O
O1  1.0  0.30189609505433973  0.2620981173139705  0.7430572437580631  Uiso  ?  O
O1  1.0  0.3525999927293441  0.2619136207762748  0.7470831972897244  Uiso  ?  O
O1  1.0  0.30505225626279553  0.30979889812792105  0.7458510914468327  Uiso  ?  O
O1  1.0  0.3520212100935031  0.311318350903034  0.7447475446828944  Uiso  ?  O
Ce1  1.0  0.2770332946724754  0.33436410703973946  0.8168889506827277  Uiso  ?  Ce
Ce1  1.0  0.32492774754452747  0.332824746474105  0.7722378832736724  Uiso  ?  Ce
Ce1  1.0  0.276199073704175  0.2859567925269117  0.6770658150955702  Uiso  ?  Ce
Ce1  1.0  0.32483304668385277  0.28446959224631174  0.7205742411794269  Uiso  ?  Ce
O1  1.0  0.30208163615460554  0.2616036466633191  0.6989293981522566  Uiso  ?  O
O1  1.0  0.35042683264963276  0.25826950630286744  0.6945345628807612  Uiso  ?  O
O1  1.0  0.3022387934180376  0.31041219679984383  0.6963452866137367  Uiso  ?  O
O1  1.0  0.3519747806502105  0.3104499511139873  0.6952361154507362  Uiso  ?  O
O1  1.0  0.3022563665797184  0.2624938799511977  0.6496148929132383  Uiso  ?  O
O1  1.0  0.3508792723573807  0.2620655487271541  0.6500101681305113  Uiso  ?  O
O1  1.0  0.3018031415207814  0.3095964592203091  0.6513054358443937  Uiso  ?  O
O1  1.0  0.3513992498182305  0.3095761971462097  0.6504967676944866  Uiso  ?  O
Ce1  1.0  0.2810088120752114  0.336568098676058  0.7215312988440834  Uiso  ?  Ce
Ce1  1.0  0.32568323877498606  0.335981046438254  0.67402276957995  Uiso  ?  Ce
Ce1  1.0  0.2774577265884598  0.28874042300796415  0.5750960330956076  Uiso  ?  Ce
Ce1  1.0  0.32450290111778585  0.28528813089106675  0.62713013639795  Uiso  ?  Ce
O1  1.0  0.30250660047308564  0.261103075481828  0.6019253772632617  Uiso  ?  O
O1  1.0  0.3516759264671996  0.2612697312592449  0.6017527908029234  Uiso  ?  O
O1  1.0  0.301749911633162  0.30937538943141585  0.6023142359855735  Uiso  ?  O
O1  1.0  0.34961895556802297  0.30942639475417527  0.6006678404649851  Uiso  ?  O
O1  1.0  0.30142731488219265  0.2612407041345673  0.551698867950951  Uiso  ?  O
O1  1.0  0.35195228163936815  0.2608690471573745  0.5493298049555629  Uiso  ?  O
O1  1.0  0.30190843289598707  0.31087735187323545  0.5531316080860793  Uiso  ?  O
O1  1.0  0.349603819554111  0.30667426168346473  0.5528033076642107  Uiso  ?  O
Ce1  1.0  0.2782947003361028  0.3350833444447427  0.6200102548982637  Uiso  ?  Ce
Ce1  1.0  0.3277474453342777  0.33399683376377437  0.5766627587294744  Uiso  ?  Ce
Ce1  1.0  0.2787940967471998  0.2835303629323254  0.4808284083993929  Uiso  ?  Ce
Ce1  1.0  0.3302003937185354  0.2863413572067383  0.5301867839703186  Uiso  ?  Ce
O1  1.0  0.3008980664457078  0.2629724577555851  0.5038094392935784  Uiso  ?  O
O1  1.0  0.34694220615054366  0.2580296698830631  0.5020079520670985  Uiso  ?  O
O1  1.0  0.30356905557417396  0.31019529342812857  0.5000188738429516  Uiso  ?  O
O1  1.0  0.3497917600513386  0.3114561066617136  0.506652746396163  Uiso  ?  O
O1  1.0  0.3027577575328768  0.2629563147422701  0.4564690464309472  Uiso  ?  O
O1  1.0  0.3494979908362979  0.26350165422890587  0.457561352649001  Uiso  ?  O
O1  1.0  0.3001344839924778  0.3085522079453265  0.45766663047161443  Uiso  ?  O
O1  1.0  0.3508745575338571  0.31406814592253696  0.4563526152592888  Uiso  ?  O
Ce1  1.0  0.2751762512400646  0.33735392297713884  0.528654005991627  Uiso  ?  Ce
Ce1  1.0  0.3249021008143571  0.33467886078468695  0.4855345190937185  Uiso  ?  Ce
Ce1  1.0  0.28019835597118015  0.28554739652991895  0.3880535863390658  Uiso  ?  Ce
Ce1  1.0  0.32649203057669723  0.28630296566589264  0.436306190474594  Uiso  ?  Ce
O1  1.0  0.30054392813012354  0.26313437285966884  0.40750544882407846  Uiso  ?  O
O1  1.0  0.3491281448264656  0.262807349256566  0.4086193556745416  Uiso  ?  O
O1  1.0  0.3043553281827451  0.3080074020699026  0.40961623304245115  Uiso  ?  O
O1  1.0  0.35134069153876035  0.3110065107397756  0.40811072485590616  Uiso  ?  O
O1  1.0  0.3040767638634281  0.2596203404817454  0.36265027558202667  Uiso  ?  O
O1  1.0  0.3531129667922037  0.2605618858890827  0.3641231934308398  Uiso  ?  O
O1  1.0  0.3020154776441561  0.3088849983364072  0.35804315487701577  Uiso  ?  O
O1  1.0  0.3520075489006866  0.31074677396255845  0.3644456196883274  Uiso  ?  O
Ce1  1.0  0.2795853979995659  0.333216521576155  0.4310123616683783  Uiso  ?  Ce
Ce1  1.0  0.3275015849072934  0.3315688220077272  0.3881204184201928  Uiso  ?  Ce
Ce1  1.0  0.27982449587179975  0.28532852472703274  0.2875046400706626  Uiso  ?  Ce
Ce1  1.0  0.32774213630406784  0.28857391383128045  0.33902341617003756  Uiso  ?  Ce
O1  1.0  0.3059595118457358  0.26354273257519045  0.31309263033145734  Uiso  ?  O
O1  1.0  0.35041376718691425  0.25964303731289806  0.3106906098401718  Uiso  ?  O
O1  1.0  0.30234957362869774  0.3138241008941348  0.3158225259519475  Uiso  ?  O
O1  1.0  0.3532824008946219  0.30831553149139684  0.3140660877261198  Uiso  ?  O
O1  1.0  0.30047403190128585  0.2594536264583408  0.26579549552670323  Uiso  ?  O
O1  1.0  0.3495053408836611  0.26095143246061264  0.26582282189765144  Uiso  ?  O
O1  1.0  0.3047228075726489  0.30802959288871423  0.2644328462866425  Uiso  ?  O
O1  1.0  0.3498953876513287  0.3099220201824511  0.26263726597990084  Uiso  ?  O
Ce1  1.0  0.2797469756806297  0.335364992425945  0.33789266749282854  Uiso  ?  Ce
Ce1  1.0  0.32681780198309535  0.3344893164718288  0.28840296036186946  Uiso  ?  Ce
Ce1  1.0  0.27743850118868657  0.2900345725626159  0.1961879573502139  Uiso  ?  Ce
Ce1  1.0  0.3250254833914065  0.2866600981277595  0.24067227670416572  Uiso  ?  Ce
O1  1.0  0.30520562974783316  0.26179877186357536  0.21472273080617044  Uiso  ?  O
O1  1.0  0.3524108896846191  0.26109078009401504  0.220390422664535  Uiso  ?  O
O1  1.0  0.3004963609640453  0.3099100982648375  0.21908032054673787  Uiso  ?  O
O1  1.0  0.3481325473153146  0.31121890967220517  0.2145509758090922  Uiso  ?  O
O1  1.0  0.3028176396822665  0.2612628186582713  0.16972970824426514  Uiso  ?  O
O1  1.0  0.3533800370670642  0.26428231120340495  0.16811582483840046  Uiso  ?  O
O1  1.0  0.3003529983734843  0.30835448291157813  0.16859938575210193  Uiso  ?  O
O1  1.0  0.35035112483598  0.3085815887456779  0.16959054734312218  Uiso  ?  O
Ce1  1.0  0.27981272609084895  0.33187279817377413  0.24282183113967531  Uiso  ?  Ce
Ce1  1.0  0.3265848915166045  0.3330480610048999  0.191379939068464  Uiso  ?  Ce
Ce1  1.0  0.2770757226980996  0.2867838081098824  0.09631894961702893  Uiso  ?  Ce
Ce1  1.0  0.3249633378264585  0.2827958449495493  0.14681448444284886  Uiso  ?  Ce
O1  1.0  0.29962056957810285  0.2603477022557133  0.12016027741607678  Uiso  ?  O
O1  1.0  0.350472644779764  0.25955498259386045  0.12041147878286568  Uiso  ?  O
O1  1.0  0.30461635433796497  0.30449276904001304  0.12089519542037343  Uiso  ?  O
O1  1.0  0.34972054751102855  0.31263064090582565  0.1249968547611895  Uiso  ?  O
Ce1  1.0  0.2753031203038996  0.3358645644684704  0.14532320550581107  Uiso  ?  Ce
O1  1.0  0.39673896061439023  0.25853162580645483  0.9334432393832672  Uiso  ?  O
O1  1.0  0.4473618406661943  0.25862426621024537  0.935581966956434  Uiso  ?  O
O1  1.0  0.3999071428750455  0.31126580612114496  0.9354557590878237  Uiso  ?  O
O1  1.0  0.4454253437832517  0.31213750332500817  0.9336274033393597  Uiso  ?  O
Ce1  1.0  0.3779478967822461  0.2849007251531145  0.8643935024247316  Uiso  ?  Ce
Ce1  1.0  0.42043411900214195  0.2862666895110759  0.9100228049097723  Uiso  ?  Ce
O1  1.0  0.3963055137210416  0.2642617688934983  0.8862292327581307  Uiso  ?  O
O1  1.0  0.4466522700158161  0.2600281999562126  0.8899412796695506  Uiso  ?  O
O1  1.0  0.396999039115772  0.3077623622342189  0.8872113575172687  Uiso  ?  O
O1  1.0  0.4458858181119086  0.3097748479270721  0.8871958790989221  Uiso  ?  O
O1  1.0  0.3977856892765252  0.261366480748125  0.8410154988824905  Uiso  ?  O
O1  1.0  0.4482183845368344  0.26054873534236556  0.8420103122395739  Uiso  ?  O
O1  1.0  0.39809076279675004  0.31042848050511607  0.8451584034013567  Uiso  ?  O
O1  1.0  0.4467191842126216  0.31169516732094377  0.8428313717909975  Uiso  ?  O
Ce1  1.0  0.3765467952991394  0.3359930878151214  0.9151043995246857  Uiso  ?  Ce
Ce1  1.0  0.42311958526953286  0.3335483923471922  0.865035671167339  Uiso  ?  Ce
Ce1  1.0  0.3738286904360208  0.28649427676649186  0.7674612542854665  Uiso  ?  Ce
Ce1  1.0  0.4223790060882157  0.2860015419509024  0.8163194628076182  Uiso  ?  Ce
O1  1.0  0.39598416000038  0.2617021185681823  0.7937328656309273  Uiso  ?  O
O1  1.0  0.44651640861676856  0.26260580427501906  0.7922393321589719  Uiso  ?  O
O1  1.0  0.3988608534830572  0.30861836975034573  0.791384923921838  Uiso  ?  O
O1  1.0  0.4438739268682451  0.3103215772096407  0.7940815049224011  Uiso  ?  O
O1  1.0  0.3961956942504523  0.26118448417732865  0.7459688981207397  Uiso  ?  O
O1  1.0  0.44435272262122083  0.2612133196281763  0.7440036381937344  Uiso  ?  O
O1  1.0  0.39850526428073674  0.31189806029050904  0.745465174097949  Uiso  ?  O
O1  1.0  0.44761860283478716  0.3111523314866181  0.7410188859036476  Uiso  ?  O
Ce1  1.0  0.3764331032840064  0.33434766431684004  0.8182585677606619  Uiso  ?  Ce
Ce1  1.0  0.4236705881849176  0.33414871633121396  0.7697766438501759  Uiso  ?  Ce
Ce1  1.0  0.3754497126874902  0.2840239429174061  0.674214542313301  Uiso  ?  Ce
Ce1  1.0  0.42139826471411024  0.2853567435692546  0.7214797808709138  Uiso  ?  Ce
O1  1.0  0.3992410698597842  0.2602123296851846  0.6926833805100759  Uiso  ?  O
O1  1.0  0.4495709191359847  0.26456030169194084  0.7007768880231489  Uiso  ?  O
O1  1.0  0.398926699117876  0.30939400529395605  0.6987147531458912  Uiso  ?  O
O1  1.0  0.4464030896658775  0.31274652918949314  0.6967054356969968  Uiso  ?  O
O1  1.0  0.3994785992774613  0.26060004654366026  0.6493295569288582  Uiso  ?  O
O1  1.0  0.4435171391418203  0.26052981786662166  0.6483440102576964  Uiso  ?  O
O1  1.0  0.3965432504090601  0.31103198989071873  0.6479252014941637  Uiso  ?  O
O1  1.0  0.44763306210396536  0.3106649651552303  0.6464365960878928  Uiso  ?  O
Ce1  1.0  0.3754118346362277  0.32978445028758047  0.7200408541940206  Uiso  ?  Ce
Ce1  1.0  0.4250838107038464  0.333484706652101  0.6712766346555055  Uiso  ?  Ce
Ce1  1.0  0.3718948034904449  0.2867355721049246  0.5801238398885191  Uiso  ?  Ce
Ce1  1.0  0.4256849578818498  0.2853989540310518  0.6268459576686638  Uiso  ?  Ce
O1  1.0  0.39919724401715145  0.262871815391973  0.6049403854381483  Uiso  ?  O
O1  1.0  0.45017594048120674  0.2617509036731208  0.6041526153275643  Uiso  ?  O
O1  1.0  0.39685040635037083  0.30985482070099923  0.6007026797881698  Uiso  ?  O
O1  1.0  0.44779501522401594  0.30913132937085214  0.6012106181490701  Uiso  ?  O
O1  1.0  0.3994011258511829  0.2611712331377653  0.5540354071487288  Uiso  ?  O
O1  1.0  0.44558594472962865  0.2589807788733731  0.5513883957591726  Uiso  ?  O
O1  1.0  0.40061600855324614  0.3069210673509518  0.5519599603776261  Uiso  ?  O
O1  1.0  0.4465154276635069  0.3099368831732196  0.5569948217230898  Uiso  ?  O
Ce1  1.0  0.3730185499106341  0.3334440886661778  0.6259333931273925  Uiso  ?  Ce
Ce1  1.0  0.4242912116325659  0.33380584265937707  0.5767107664201474  Uiso  ?  Ce
Ce1  1.0  0.3724776328422092  0.2873301009346202  0.48143982217283354  Uiso  ?  Ce
Ce1  1.0  0.42170136393216595  0.2863316568517542  0.5305495043921875  Uiso  ?  Ce
O1  1.0  0.39738569630324894  0.2619751545085144  0.5060472030156383  Uiso  ?  O
O1  1.0  0.44921839519611667  0.2633463307092909  0.5079106399835001  Uiso  ?  O
O1  1.0  0.39829431831388873  0.31089706817580215  0.5066934662850078  Uiso  ?  O
O1  1.0  0.4471146720627859  0.31010841090558616  0.505004529065947  Uiso  ?  O
O1  1.0  0.3988092475460546  0.2597032841243501  0.4592501302258947  Uiso  ?  O
O1  1.0  0.44932282698958564  0.2651949015454225  0.45562094471954406  Uiso  ?  O
O1  1.0  0.3996550088652139  0.30982317156297723  0.4581293298262199  Uiso  ?  O
O1  1.0  0.4484058284826992  0.31150145866719486  0.4558591828313876  Uiso  ?  O
Ce1  1.0  0.37286771579380446  0.33290847691313424  0.5307655278073378  Uiso  ?  Ce
Ce1  1.0  0.42291191981067894  0.33628169543682135  0.4813944028636896  Uiso  ?  Ce
Ce1  1.0  0.37518213231558484  0.28788146144001375  0.3851521648188656  Uiso  ?  Ce
Ce1  1.0  0.42272674553304995  0.28711349224692206  0.4331654490941587  Uiso  ?  Ce
O1  1.0  0.39928956496845125  0.2608200632808713  0.4067811885476643  Uiso  ?  O
O1  1.0  0.44725371387991036  0.2635581684790087  0.4111238621051758  Uiso  ?  O
O1  1.0  0.39966202032053705  0.31014042366600286  0.4109457920158562  Uiso  ?  O
O1  1.0  0.44757969220403204  0.3107129427706746  0.4092896207569409  Uiso  ?  O
O1  1.0  0.3967008644800405  0.2623845011872248  0.3612052995807907  Uiso  ?  O
O1  1.0  0.4462484664409685  0.26286546786187204  0.35900049449815447  Uiso  ?  O
O1  1.0  0.40010608520942775  0.311531727007732  0.3630986090963856  Uiso  ?  O
O1  1.0  0.44545518544455465  0.3116393051674531  0.35876220088993277  Uiso  ?  O
Ce1  1.0  0.37376811281155226  0.3324692852450349  0.42840170822624596  Uiso  ?  Ce
Ce1  1.0  0.4240915884661466  0.33866881481714783  0.38545761487778285  Uiso  ?  Ce
Ce1  1.0  0.37534647923469805  0.2877979816045612  0.2893897560327118  Uiso  ?  Ce
Ce1  1.0  0.4225464202245659  0.28906302028877995  0.3370336794671371  Uiso  ?  Ce
O1  1.0  0.39805923090522577  0.2606703460504528  0.3151668159666  Uiso  ?  O
O1  1.0  0.44483889913999597  0.25786171322627943  0.3167150892864968  Uiso  ?  O
O1  1.0  0.3984859624647994  0.309451571112723  0.3119399461336212  Uiso  ?  O
O1  1.0  0.4479764503357105  0.3118277936266268  0.31166521489161053  Uiso  ?  O
O1  1.0  0.3997206870147486  0.2637271617441114  0.26274103913013597  Uiso  ?  O
O1  1.0  0.44550100741757537  0.26304581469799077  0.2656748462970096  Uiso  ?  O
O1  1.0  0.39851234916251466  0.30921739619757926  0.26301363082084833  Uiso  ?  O
O1  1.0  0.44690255030728127  0.3069555104959376  0.26447368416856065  Uiso  ?  O
Ce1  1.0  0.37511178210670215  0.33690766269100747  0.3373541490578599  Uiso  ?  Ce
Ce1  1.0  0.42382298263826346  0.33360623140901685  0.2922991120745738  Uiso  ?  Ce
Ce1  1.0  0.37422502421663467  0.2883413176846733  0.19605492679784484  Uiso  ?  Ce
Ce1  1.0  0.4223498598739837  0.2843808739917745  0.24190577094685214  Uiso  ?  Ce
O1  1.0  0.39979415321293116  0.2626437076288361  0.21673906484188082  Uiso  ?  O
O1  1.0  0.44449361331536963  0.26265163576884243  0.21682811134262153  Uiso  ?  O
O1  1.0  0.4000238775581617  0.3093346147346855  0.21902191658665546  Uiso  ?  O
O1  1.0  0.4463808327107762  0.31108548530926644  0.2211030410420224  Uiso  ?  O
O1  1.0  0.39833737668119773  0.26289010569917565  0.17168238766641966  Uiso  ?  O
O1  1.0  0.4463844347684419  0.2631896392030205  0.17462752984911675  Uiso  ?  O
O1  1.0  0.39718243384059027  0.3074946347680263  0.16964634739662798  Uiso  ?  O
O1  1.0  0.4475725995328596  0.30774819201214376  0.1670987726007896  Uiso  ?  O
Ce1  1.0  0.37537992434587125  0.33392249382937783  0.24285636610404845  Uiso  ?  Ce
Ce1  1.0  0.42285697933346167  0.3342960847295796  0.19364713248944995  Uiso  ?  Ce
Ce1  1.0  0.37447888996011974  0.2851170471469473  0.09980481812180406  Uiso  ?  Ce
Ce1  1.0  0.425199194865317  0.283927424071848  0.1457998100617548  Uiso  ?  Ce
O1  1.0  0.4008216108483747  0.2603847465356502  0.11854438689833902  Uiso  ?  O
O1  1.0  0.4468586797008331  0.2631020983383036  0.12235698191098873  Uiso  ?  O
O1  1.0  0.39969245331137593  0.31339549977684716  0.12154517631055828  Uiso  ?  O
O1  1.0  0.44689555495520855  0.3115277161380387  0.12131698279870427  Uiso  ?  O
Ce1  1.0  0.3753040157211428  0.3342916010992672  0.14421901576339902  Uiso  ?  Ce
O1  1.0  0.4944981064060461  0.2604577928354682  0.9358730852671546  Uiso  ?  O
O1  1.0  0.5414641100880464  0.26004167365444364  0.9371569664298612  Uiso  ?  O
O1  1.0  0.49309736107013447  0.3111198889219422  0.9370802419534858  Uiso  ?  O
O1  1.0  0.5416292863718116  0.306523180936529  0.9348280164341262  Uiso  ?  O
Ce1  1.0  0.4703946270464498  0.2903637129462614  0.8632018450770007  Uiso  ?  Ce
Ce1  1.0  0.5201094866183898  0.2857487508259365  0.910900264854338  Uiso  ?  Ce
O1  1.0  0.4962958054062667  0.2625257885190557  0.889172382726214  Uiso  ?  O
O1  1.0  0.5408500012713339  0.26147404396779167  0.8884944740188391  Uiso  ?  O
O1  1.0  0.4932333532999258  0.3086533949922106  0.8894122586687699  Uiso  ?  O
O1  1.0  0.543529417713706  0.30675910371508036  0.8909017108196247  Uiso  ?  O
O1  1.0  0.49426570686352544  0.2652709720320104  0.8411509770053837  Uiso  ?  O
O1  1.0  0.5409886306275885  0.2645856954914574  0.8427044178205446  Uiso  ?  O
O1  1.0  0.49366437195685764  0.311638426157964  0.839999751284785  Uiso  ?  O
O1  1.0  0.5397014700552472  0.30878375850520196  0.8436468384632546  Uiso  ?  O
Ce1  1.0  0.4727855410832015  0.32997404573851946  0.9133390441871594  Uiso  ?  Ce
Ce1  1.0  0.5184902943030643  0.33524750190829106  0.8652243075350879  Uiso  ?  Ce
Ce1  1.0  0.4698657412090519  0.2855055572430024  0.7685210088472146  Uiso  ?  Ce
Ce1  1.0  0.5150555193499305  0.2862271598615505  0.8188368669034408  Uiso  ?  Ce
O1  1.0  0.4932950335952933  0.26165154467411356  0.7895686746911805  Uiso  ?  O
O1  1.0  0.5425654433106086  0.2607465299864797  0.7906535449651754  Uiso  ?  O
O1  1.0  0.4967012722108106  0.30823898015593904  0.7910633973634178  Uiso  ?  O
O1  1.0  0.5404604778546874  0.3067919454098919  0.7903847147124287  Uiso  ?  O
O1  1.0  0.4967928461221882  0.2586320023034625  0.7422294137777421  Uiso  ?  O
O1  1.0  0.5426911012352855  0.2619504722052662  0.7444779257847796  Uiso  ?  O
O1  1.0  0.4927565095422858  0.3099991833320283  0.7434552486386555  Uiso  ?  O
O1  1.0  0.5419297078373216  0.31064733995120575  0.7450317762560892  Uiso  ?  O
Ce1  1.0  0.46991865466062527  0.3318404309085997  0.8172856241324216  Uiso  ?  Ce
Ce1  1.0  0.5200929688736154  0.3327343366025931  0.7680960501315031  Uiso  ?  Ce
Ce1  1.0  0.4699268420815513  0.28613608854929196  0.6735331175841849  Uiso  ?  Ce
Ce1  1.0  0.5189356868351773  0.2841254381926267  0.7205663916302671  Uiso  ?  Ce
O1  1.0  0.49642964574853454  0.2633338148747177  0.6992146405280627  Uiso  ?  O
O1  1.0  0.5416303187257473  0.262629921773952  0.699866442939174  Uiso  ?  O
O1  1.0  0.4939642135757912  0.3096658328912625  0.6999882364418891  Uiso  ?  O
O1  1.0  0.543579404843763  0.3087590583761843  0.6910393726983908  Uiso  ?  O
O1  1.0  0.49336563814116724  0.26158419109790565  0.6503784589688687  Uiso  ?  O
O1  1.0  0.5421878899178167  0.2607370457382433  0.6479920432793786  Uiso  ?  O
O1  1.0  0.4950949509167058  0.30920519172167704  0.6502034238930329  Uiso  ?  O
O1  1.0  0.5454358694476116  0.30727716670164446  0.6489288007347211  Uiso  ?  O
Ce1  1.0  0.4721810629203704  0.3317571387985165  0.7214932531281073  Uiso  ?  Ce
Ce1  1.0  0.5182314506333682  0.333913568944878  0.6740970414534035  Uiso  ?  Ce
Ce1  1.0  0.46888769914427186  0.2849225145096436  0.5768212227543589  Uiso  ?  Ce
Ce1  1.0  0.5202435794408495  0.28625244357784596  0.6237531134843618  Uiso  ?  Ce
O1  1.0  0.49199282632657304  0.2646885143516879  0.5983345764416805  Uiso  ?  O
O1  1.0  0.5420583331970786  0.264206852629813  0.6040589624255929  Uiso  ?  O
O1  1.0  0.4950422187711514  0.3114622328936116  0.6038681895225697  Uiso  ?  O
O1  1.0  0.5435193143197533  0.3089897362435077  0.599206459445181  Uiso  ?  O
O1  1.0  0.4943405441811623  0.2617784882582722  0.5524551688147712  Uiso  ?  O
O1  1.0  0.5396037001127246  0.2590092903388762  0.5533417893578837  Uiso  ?  O
O1  1.0  0.49525776534572946  0.3109360342417469  0.5508667190693062  Uiso  ?  O
O1  1.0  0.5404980577729274  0.31067291417674336  0.5540485510336488  Uiso  ?  O
Ce1  1.0  0.4701248582667601  0.3351430394098671  0.6259604949765588  Uiso  ?  Ce
Ce1  1.0  0.5196600169036593  0.3323616816356186  0.5740436599591844  Uiso  ?  Ce
Ce1  1.0  0.46680812735244015  0.28696310609686015  0.47932920671203755  Uiso  ?  Ce
Ce1  1.0  0.5154545103217396  0.2877575119086232  0.5318833644328633  Uiso  ?  Ce
O1  1.0  0.4966311409681387  0.26394064549989804  0.5072864843220481  Uiso  ?  O
O1  1.0  0.5422681557899299  0.2617060683654505  0.50842448994082  Uiso  ?  O
O1  1.0  0.4946235073028068  0.3125016043129974  0.5022905562022196  Uiso  ?  O
O1  1.0  0.5456142886745564  0.31028390889952245  0.5074667076472793  Uiso  ?  O
O1  1.0  0.49250579500935804  0.26326563503812783  0.4576211477531602  Uiso  ?  O
O1  1.0  0.540117241846609  0.2643077226776095  0.45569404048743245  Uiso  ?  O
O1  1.0  0.4939202087125672  0.30787378968504264  0.45715078902840084  Uiso  ?  O
O1  1.0  0.5440338894731815  0.30647396174994745  0.4563283158138191  Uiso  ?  O
Ce1  1.0  0.4714240939115  0.33494708081409524  0.5272416213883879  Uiso  ?  Ce
Ce1  1.0  0.5187127322352197  0.33502232411665106  0.4789710144026741  Uiso  ?  Ce
Ce1  1.0  0.4688002618912191  0.2857500380021178  0.38417895223265563  Uiso  ?  Ce
Ce1  1.0  0.5151983708654907  0.2847509791028855  0.4291567880888811  Uiso  ?  Ce
O1  1.0  0.49155641824458773  0.2598361864143264  0.41046038764335774  Uiso  ?  O
O1  1.0  0.5413463793340407  0.2621213109693888  0.40929018787762805  Uiso  ?  O
O1  1.0  0.4959282957464643  0.30847620226926187  0.4096688233311229  Uiso  ?  O
O1  1.0  0.5422254285999814  0.3072477447687799  0.4121071168584019  Uiso  ?  O
O1  1.0  0.4905316678178982  0.2634656619842995  0.36300023214473964  Uiso  ?  O
O1  1.0  0.5447755166904549  0.2605466358923333  0.3622937508938179  Uiso  ?  O
O1  1.0  0.4958341894985463  0.3125783625164162  0.3615697167343539  Uiso  ?  O
O1  1.0  0.5438663288881834  0.30720717189911867  0.3624271907665505  Uiso  ?  O
Ce1  1.0  0.47019199257770183  0.3330709235568951  0.4359396273053897  Uiso  ?  Ce
Ce1  1.0  0.5203653017053713  0.33499947098539135  0.3828707465957926  Uiso  ?  Ce
Ce1  1.0  0.4725931045442811  0.286922262031511  0.2859752665636601  Uiso  ?  Ce
Ce1  1.0  0.5234922173890517  0.2878040609507969  0.33700479411800965  Uiso  ?  Ce
O1  1.0  0.49500408872105023  0.2604009836928118  0.3139446176289138  Uiso  ?  O
O1  1.0  0.5395893649059634  0.2593588641456396  0.3102381620375994  Uiso  ?  O
O1  1.0  0.4973307382687193  0.31053614814617875  0.31522151911296004  Uiso  ?  O
O1  1.0  0.5380195663710172  0.31073700519521535  0.3156072872447909  Uiso  ?  O
O1  1.0  0.49380695627970517  0.26216573575417984  0.2642436655773447  Uiso  ?  O
O1  1.0  0.5407061773075578  0.26089990731104024  0.2670104430802214  Uiso  ?  O
O1  1.0  0.49167705232265196  0.3081915386845756  0.2663008691449304  Uiso  ?  O
O1  1.0  0.5412865420325937  0.3092269963453646  0.2660818938450446  Uiso  ?  O
Ce1  1.0  0.4669152542041453  0.3328129808469394  0.3367577261778944  Uiso  ?  Ce
Ce1  1.0  0.5152923186820825  0.33474953854033795  0.28974538809140776  Uiso  ?  Ce
Ce1  1.0  0.46933962868530843  0.28559549240992876  0.1915858023707522  Uiso  ?  Ce
Ce1  1.0  0.5163535898043189  0.29070497055995487  0.2435735176080833  Uiso  ?  Ce
O1  1.0  0.4970834891252225  0.2615195192784959  0.2160512759905863  Uiso  ?  O
O1  1.0  0.5452299744120371  0.264739773966691  0.21562992893820032  Uiso  ?  O
O1  1.0  0.49497183042718307  0.310522853304977  0.21577172054580376  Uiso  ?  O
O1  1.0  0.5425819629753343  0.3116113087943974  0.2170827921099159  Uiso  ?  O
O1  1.0  0.492417401739864  0.2635401875783773  0.16956739028228618  Uiso  ?  O
O1  1.0  0.5399837898396838  0.2591039607251506  0.16885997290768665  Uiso  ?  O
O1  1.0  0.49564223631882404  0.310337620093659  0.1677732550691672  Uiso  ?  O
O1  1.0  0.5420941196937146  0.3076762934366306  0.17163634202861944  Uiso  ?  O
Ce1  1.0  0.47309385423145567  0.33492853866320405  0.24065931239011845  Uiso  ?  Ce
Ce1  1.0  0.5227279209335501  0.3320276677344273  0.19192738629993522  Uiso  ?  Ce
Ce1  1.0  0.5185270281957246  0.28486607923707474  0.14295023299511098  Uiso  ?  Ce
O1  1.0  0.4944317039894537  0.2613679856138301  0.12190644458232967  Uiso  ?  O
O1  1.0  0.5403035526742744  0.26038057665550446  0.11696859968586341  Uiso  ?  O
Ce1  1.0  0.4689286663955088  0.33201709653499284  0.1455510602035627  Uiso  ?  Ce
O1  1.0  0.5894113253827181  0.25982189708065134  0.9370036697154754  Uiso  ?  O
O1  1.0  0.6358297235753413  0.26243768403122636  0.9383012308468525  Uiso  ?  O
O1  1.0  0.5910235643047553  0.31155559975173036  0.9363842239704833  Uiso  ?  O
O1  1.0  0.6421568568640537  0.30803689542623847  0.9365221280931431  Uiso  ?  O
Ce1  1.0  0.5630126364332356  0.2837864360271289  0.8633219304000306  Uiso  ?  Ce
Ce1  1.0  0.6138850945039891  0.28674849632701477  0.913076253488489  Uiso  ?  Ce
O1  1.0  0.5929404728577435  0.26519325580331027  0.8916080012877019  Uiso  ?  O
O1  1.0  0.6368703485904648  0.2600968116667248  0.8889022781594341  Uiso  ?  O
O1  1.0  0.5912053863954942  0.3094511409164065  0.8887294593858943  Uiso  ?  O
O1  1.0  0.6404310264759006  0.31084542882036575  0.890822517229248  Uiso  ?  O
O1  1.0  0.5914798204265646  0.2609657017926829  0.8397576213981797  Uiso  ?  O
O1  1.0  0.637099869296609  0.2588531379895462  0.8390644329273782  Uiso  ?  O
O1  1.0  0.5906349697418339  0.30989062584374444  0.839406646610285  Uiso  ?  O
O1  1.0  0.6416769550589604  0.3099139042343031  0.8423496754438551  Uiso  ?  O
Ce1  1.0  0.5659765092907445  0.33344716835033233  0.9130819465989425  Uiso  ?  Ce
Ce1  1.0  0.6124332051955252  0.3331191972264731  0.8643448941771522  Uiso  ?  Ce
Ce1  1.0  0.5656516704732165  0.28229996442224636  0.7677933862794608  Uiso  ?  Ce
Ce1  1.0  0.6138545987019008  0.2854387659974206  0.8165058082759044  Uiso  ?  Ce
O1  1.0  0.5890428706798315  0.26398648281948073  0.791707636969645  Uiso  ?  O
O1  1.0  0.6349784255538616  0.2622432621007256  0.793414433680387  Uiso  ?  O
O1  1.0  0.5914944601793789  0.30910011847915303  0.7930842906040703  Uiso  ?  O
O1  1.0  0.638175229366897  0.30881157889485705  0.7944639988913014  Uiso  ?  O
O1  1.0  0.5903869221544544  0.25868727539088465  0.7441033272684088  Uiso  ?  O
O1  1.0  0.6363275728031347  0.2605310348426457  0.7456894576142952  Uiso  ?  O
O1  1.0  0.5873132252215596  0.30540236470190807  0.7446281127111058  Uiso  ?  O
O1  1.0  0.6390741251090671  0.3075128988112465  0.7472508407507469  Uiso  ?  O
Ce1  1.0  0.5668566042590559  0.33297796963679865  0.8158759797665204  Uiso  ?  Ce
Ce1  1.0  0.6141708082064815  0.3316959344529064  0.769342067572702  Uiso  ?  Ce
Ce1  1.0  0.5640519313776369  0.28374208696570774  0.6728765819471204  Uiso  ?  Ce
Ce1  1.0  0.6112347960089489  0.28697907471272477  0.7196513589024827  Uiso  ?  Ce
O1  1.0  0.5921214437443908  0.26289386820801497  0.6987566182245132  Uiso  ?  O
O1  1.0  0.6342600221981465  0.26003115698677237  0.6967333334051562  Uiso  ?  O
O1  1.0  0.5885831740121976  0.30952507656134665  0.6952895090019495  Uiso  ?  O
O1  1.0  0.638356973486801  0.3125045579006992  0.6998594559293427  Uiso  ?  O
O1  1.0  0.590130530096092  0.2602403398497583  0.6474072675011252  Uiso  ?  O
O1  1.0  0.6373499071362273  0.2612108730941847  0.6503993496844316  Uiso  ?  O
O1  1.0  0.59356300877659  0.3122606230522731  0.6519201652928853  Uiso  ?  O
O1  1.0  0.6412075808191503  0.3073681440856019  0.6455198192483729  Uiso  ?  O
Ce1  1.0  0.5677041061586392  0.33764736518699834  0.7201632401084961  Uiso  ?  Ce
Ce1  1.0  0.6154922082844055  0.33389238444914504  0.6719365262544837  Uiso  ?  Ce
Ce1  1.0  0.5658329107340818  0.2850324236502604  0.5799590192993904  Uiso  ?  Ce
Ce1  1.0  0.6156389541718381  0.2858934237225811  0.6227614914833528  Uiso  ?  Ce
O1  1.0  0.5918819781866211  0.2581193182640035  0.5969386720516867  Uiso  ?  O
O1  1.0  0.634525125159419  0.2627539179567174  0.6071397202115502  Uiso  ?  O
O1  1.0  0.5874207042669414  0.31259591414856747  0.5974937276521258  Uiso  ?  O
O1  1.0  0.6379672351867506  0.30591231052811996  0.602360578717208  Uiso  ?  O
O1  1.0  0.5906997493827701  0.26454905355978015  0.5507533019020737  Uiso  ?  O
O1  1.0  0.6361310522284652  0.26365451029281933  0.5537135963438072  Uiso  ?  O
O1  1.0  0.5908671374549272  0.3104521931828131  0.5536294567808829  Uiso  ?  O
O1  1.0  0.636741557593659  0.30963533838679674  0.5551527132014298  Uiso  ?  O
Ce1  1.0  0.5642622036086716  0.33447604457644314  0.6209480884697002  Uiso  ?  Ce
Ce1  1.0  0.6137929619309177  0.3329498827218956  0.5792666342254436  Uiso  ?  Ce
Ce1  1.0  0.5658697647972412  0.28570194921111736  0.48621080188869786  Uiso  ?  Ce
Ce1  1.0  0.6130691637570954  0.2834700865125374  0.5303643681231898  Uiso  ?  Ce
O1  1.0  0.5888120168079753  0.26066658415306415  0.5038931340252806  Uiso  ?  O
O1  1.0  0.6351397032628102  0.26176819267154733  0.5032810534219879  Uiso  ?  O
O1  1.0  0.5873937206574892  0.30940544958834637  0.5082050334422261  Uiso  ?  O
O1  1.0  0.6385632120190012  0.3114332023413452  0.5055987330086144  Uiso  ?  O
O1  1.0  0.5918015450289617  0.2604332834133967  0.4587484130181543  Uiso  ?  O
O1  1.0  0.6363970896067239  0.2599453116456063  0.4558605174119697  Uiso  ?  O
O1  1.0  0.5920339927989389  0.3098662038370779  0.4570747780429196  Uiso  ?  O
O1  1.0  0.6368118841319209  0.30939298197653875  0.45881191811578587  Uiso  ?  O
Ce1  1.0  0.5661084756397079  0.32897512440730664  0.5333590940888543  Uiso  ?  Ce
Ce1  1.0  0.6109412370531804  0.3328910368508732  0.48163480714905665  Uiso  ?  Ce
Ce1  1.0  0.5660423231099492  0.2870310095962026  0.381943909021828  Uiso  ?  Ce
Ce1  1.0  0.6154108160975533  0.2866503541912848  0.4324483309737667  Uiso  ?  Ce
O1  1.0  0.5903987626371809  0.2625280824118707  0.40798407659028885  Uiso  ?  O
O1  1.0  0.6375482977496911  0.26398515391527  0.40931174934257597  Uiso  ?  O
O1  1.0  0.5894779465649307  0.3092929565888553  0.40651105045872726  Uiso  ?  O
O1  1.0  0.6399841621564983  0.3088400065196382  0.4103402842156302  Uiso  ?  O
O1  1.0  0.5919395670590261  0.2629495277049731  0.3614564154294862  Uiso  ?  O
O1  1.0  0.6361169249051342  0.25930857373106664  0.3608281997821237  Uiso  ?  O
O1  1.0  0.5892954801288293  0.30999492884938734  0.3611056519093714  Uiso  ?  O
O1  1.0  0.636897268321538  0.3074184357385372  0.3620739943611515  Uiso  ?  O
Ce1  1.0  0.5644578182228428  0.3339377906975164  0.4330691564657462  Uiso  ?  Ce
Ce1  1.0  0.6152739581697675  0.33685272077111883  0.38616227420284877  Uiso  ?  Ce
Ce1  1.0  0.566359990782916  0.28586903227963  0.2871493345147693  Uiso  ?  Ce
Ce1  1.0  0.614981707459169  0.2856183208132743  0.3372381727415066  Uiso  ?  Ce
O1  1.0  0.5893465147695064  0.26159626657341906  0.31227533249047956  Uiso  ?  O
O1  1.0  0.6384749017169771  0.2617715002788036  0.31312884750797587  Uiso  ?  O
O1  1.0  0.5922294895379365  0.30740704463845286  0.3127914371974079  Uiso  ?  O
O1  1.0  0.6350616005874741  0.31127477148304145  0.31598309472520697  Uiso  ?  O
O1  1.0  0.5921353477064774  0.2603967762268043  0.2632276236371523  Uiso  ?  O
O1  1.0  0.6369356771013549  0.26661223697972053  0.2671016797471097  Uiso  ?  O
O1  1.0  0.5891566686646025  0.3100884140394629  0.26725436959537624  Uiso  ?  O
O1  1.0  0.6399506575620612  0.3106333935403555  0.2664467590225634  Uiso  ?  O
Ce1  1.0  0.5638404818045478  0.3333130218976945  0.3374267542560743  Uiso  ?  Ce
Ce1  1.0  0.6125312730453735  0.33217746693543254  0.29195195135733754  Uiso  ?  Ce
Ce1  1.0  0.5684608796881784  0.283175843503088  0.1945660761830175  Uiso  ?  Ce
Ce1  1.0  0.6153161267188265  0.2848106408808181  0.23790855719369153  Uiso  ?  Ce
O1  1.0  0.5874729198235851  0.261358163360379  0.2159344312328081  Uiso  ?  O
O1  1.0  0.6402772686692111  0.2630492123391842  0.21926118802424088  Uiso  ?  O
O1  1.0  0.5927466227059375  0.3097161135818234  0.2145550301584389  Uiso  ?  O
O1  1.0  0.6383182045710388  0.31106826372329505  0.21766694336157646  Uiso  ?  O
O1  1.0  0.5894199032706378  0.25959106704168483  0.16763302751257056  Uiso  ?  O
O1  1.0  0.6380330022652415  0.26206361403689443  0.17208991989078992  Uiso  ?  O
O1  1.0  0.588134847022505  0.31077902203999497  0.16852402861114632  Uiso  ?  O
O1  1.0  0.6379944592442677  0.3099980186018072  0.172006793064472  Uiso  ?  O
Ce1  1.0  0.5645952975948283  0.3316723189116082  0.24122155496700692  Uiso  ?  Ce
Ce1  1.0  0.6131653721589797  0.33552599374927117  0.1934902078185492  Uiso  ?  Ce
Ce1  1.0  0.6148931196233092  0.28771133982439345  0.1416550488677557  Uiso  ?  Ce
O1  1.0  0.5919268907102823  0.262033749700971  0.11991834493306645  Uiso  ?  O
O1  1.0  0.6844025780457244  0.26387275662172444  0.9386618672797417  Uiso  ?  O
O1  1.0  0.7321707340170793  0.2636694640429007  0.9387907402808634  Uiso  ?  O
O1  1.0  0.6850752044545884  0.308970860840778  0.9375608401073149  Uiso  ?  O
O1  1.0  0.736901275096732  0.309164292947553  0.9391890531822042  Uiso  ?  O
Ce1  1.0  0.6630524406069824  0.2840423503199389  0.8663603804915032  Uiso  ?  Ce
Ce1  1.0  0.7104555127028341  0.28410880097500735  0.9140093819532326  Uiso  ?  Ce
O1  1.0  0.6852597818975019  0.26505651380742523  0.8896437866032896  Uiso  ?  O
O1  1.0  0.7340305659544349  0.266099618536219  0.8900832401685761  Uiso  ?  O
O1  1.0  0.6850467220633675  0.3099187260754162  0.8912905781997792  Uiso  ?  O
O1  1.0  0.7333528241849006  0.31177632084181234  0.888550413941879  Uiso  ?  O
O1  1.0  0.68249595391132  0.26197192945182957  0.8390449268673975  Uiso  ?  O
O1  1.0  0.7328971782338787  0.268198849399119  0.8391036783443327  Uiso  ?  O
O1  1.0  0.6864428358225858  0.31468175147024746  0.8427645094289385  Uiso  ?  O
O1  1.0  0.7322236470947674  0.3098957253649188  0.8424028840104807  Uiso  ?  O
Ce1  1.0  0.658187754871176  0.33314229525131317  0.9135961330931126  Uiso  ?  Ce
Ce1  1.0  0.7131472298527759  0.3360013999225385  0.8632757679072073  Uiso  ?  Ce
Ce1  1.0  0.6623577777862344  0.2869559561931891  0.7689676204910919  Uiso  ?  Ce
Ce1  1.0  0.7085604535621396  0.28912848720049716  0.8184247124303801  Uiso  ?  Ce
O1  1.0  0.6868679426201968  0.2582517917187158  0.7941492365635724  Uiso  ?  O
O1  1.0  0.7342261939703598  0.2629240406610638  0.795671770303353  Uiso  ?  O
O1  1.0  0.6855809790499601  0.31101890068001964  0.7917801472634204  Uiso  ?  O
O1  1.0  0.7343614634658568  0.3127464510533652  0.7942344968339178  Uiso  ?  O
O1  1.0  0.6879397624342147  0.26153327794941644  0.7450672907615471  Uiso  ?  O
O1  1.0  0.734863511217493  0.2615685590262365  0.7472859741527027  Uiso  ?  O
O1  1.0  0.6845600069643967  0.3128658582524333  0.7445122540538602  Uiso  ?  O
O1  1.0  0.732829898731449  0.30897948063967084  0.7441194535887953  Uiso  ?  O
Ce1  1.0  0.6620464087235245  0.3321214997309071  0.8178254497964597  Uiso  ?  Ce
Ce1  1.0  0.7112914352026055  0.33177849439679746  0.7668943008523064  Uiso  ?  Ce
Ce1  1.0  0.658303330585724  0.2847156464176563  0.6748504503641657  Uiso  ?  Ce
Ce1  1.0  0.7126309889488395  0.28790215414763143  0.7220172553849579  Uiso  ?  Ce
O1  1.0  0.6864282491463438  0.2634420512651744  0.6987114912745354  Uiso  ?  O
O1  1.0  0.7342283272974028  0.265006338833466  0.6945704383969447  Uiso  ?  O
O1  1.0  0.6870585573069562  0.3096256625454176  0.6968726572645826  Uiso  ?  O
O1  1.0  0.7334920728162858  0.3092500658916596  0.6960419028505208  Uiso  ?  O
O1  1.0  0.6865282485530371  0.25937624671757825  0.649672200910828  Uiso  ?  O
O1  1.0  0.7315182120214379  0.26023024246863324  0.6480044446423647  Uiso  ?  O
O1  1.0  0.6868870222614032  0.31103432776078893  0.6475361799057454  Uiso  ?  O
O1  1.0  0.7326653040138871  0.3069299281806173  0.6520105609702169  Uiso  ?  O
Ce1  1.0  0.6615047693165254  0.3306772641324637  0.7225904136380831  Uiso  ?  Ce
Ce1  1.0  0.7110732311802379  0.33604474438864596  0.6730298098372434  Uiso  ?  Ce
Ce1  1.0  0.6638417359387697  0.2836763159539385  0.5755572022710054  Uiso  ?  Ce
Ce1  1.0  0.7100208643012447  0.28352413655042025  0.625618281816639  Uiso  ?  Ce
O1  1.0  0.686408473832714  0.2642620848976172  0.6042769171143294  Uiso  ?  O
O1  1.0  0.7332989492063602  0.26673813220245424  0.6015869341571969  Uiso  ?  O
O1  1.0  0.6858189294308139  0.3113630296578759  0.6011515466799426  Uiso  ?  O
O1  1.0  0.7357249228447127  0.3092217695381637  0.6007119957563049  Uiso  ?  O
O1  1.0  0.6862075557605728  0.25867422660856015  0.5565501822937071  Uiso  ?  O
O1  1.0  0.7348921610801471  0.2615459478777334  0.5572530748659797  Uiso  ?  O
O1  1.0  0.685217850683905  0.3062155055261815  0.5524756399104804  Uiso  ?  O
O1  1.0  0.7322424563020874  0.31156646932813714  0.5514813251721505  Uiso  ?  O
Ce1  1.0  0.6603986050528434  0.33138726048161177  0.6255387671107624  Uiso  ?  Ce
Ce1  1.0  0.7114741596401744  0.33369458102447813  0.5765365228732366  Uiso  ?  Ce
Ce1  1.0  0.6613354478896764  0.2853537615617455  0.4812856488693132  Uiso  ?  Ce
Ce1  1.0  0.7092047620996905  0.2824381517294326  0.529617109654862  Uiso  ?  Ce
O1  1.0  0.6875118451852056  0.262193362227035  0.5043267558862422  Uiso  ?  O
O1  1.0  0.7366103357774704  0.2637046203012163  0.5053732563245343  Uiso  ?  O
O1  1.0  0.6853586571204041  0.3097983050478852  0.5057083884752853  Uiso  ?  O
O1  1.0  0.7340793178264615  0.3103658620110567  0.5058270236123682  Uiso  ?  O
O1  1.0  0.68367693333833  0.2619366621224238  0.45518017650373566  Uiso  ?  O
O1  1.0  0.7365023813882714  0.2630437513331202  0.45620529099836615  Uiso  ?  O
O1  1.0  0.685564828594182  0.3099783353160194  0.45710610774420624  Uiso  ?  O
O1  1.0  0.7330751590710206  0.3078995603022273  0.45818501863818645  Uiso  ?  O
Ce1  1.0  0.661259502690313  0.3320551239259268  0.5304628857493073  Uiso  ?  Ce
Ce1  1.0  0.7088394167225952  0.3379552975614581  0.47707989419037267  Uiso  ?  Ce
Ce1  1.0  0.6618768824195884  0.28632962538638573  0.38357928737971303  Uiso  ?  Ce
Ce1  1.0  0.7087574190272321  0.2830638448328601  0.43560888384089846  Uiso  ?  Ce
O1  1.0  0.6859885232397085  0.2623483220040912  0.410526077600516  Uiso  ?  O
O1  1.0  0.7355001257836128  0.2663263244576468  0.40898497415997  Uiso  ?  O
O1  1.0  0.6867237061945051  0.3118045688041009  0.40812964757023734  Uiso  ?  O
O1  1.0  0.7353832067631719  0.3091641163428999  0.4079749751850361  Uiso  ?  O
O1  1.0  0.685545844331699  0.2627246653888663  0.3623544743191862  Uiso  ?  O
O1  1.0  0.7329687406721358  0.26276070128292256  0.36403369987293793  Uiso  ?  O
O1  1.0  0.6870213302560817  0.3094657074805823  0.36258800407162467  Uiso  ?  O
O1  1.0  0.7344658543579184  0.3131213191706088  0.3565463356737971  Uiso  ?  O
Ce1  1.0  0.6609021908372744  0.33610587544534093  0.43448013891696635  Uiso  ?  Ce
Ce1  1.0  0.7111800598092786  0.33364655454967873  0.386054713185486  Uiso  ?  Ce
Ce1  1.0  0.6610968691557728  0.28805449453344056  0.29231344591305936  Uiso  ?  Ce
Ce1  1.0  0.7100622174574248  0.2861956123706259  0.33478876805748803  Uiso  ?  Ce
O1  1.0  0.6847636258875439  0.26285055884333736  0.3131872431548923  Uiso  ?  O
O1  1.0  0.7348156993765984  0.26232839595063573  0.31545035208366745  Uiso  ?  O
O1  1.0  0.6835025321193755  0.30990495788625905  0.3154932125093672  Uiso  ?  O
O1  1.0  0.7319506494034439  0.30820115473968057  0.31227269038328775  Uiso  ?  O
O1  1.0  0.6844531382686184  0.2614130907638021  0.2631416426008529  Uiso  ?  O
O1  1.0  0.7345630739324347  0.26130411844378215  0.26499415561811757  Uiso  ?  O
O1  1.0  0.6849134385413391  0.3095169711599874  0.26615680728850305  Uiso  ?  O
O1  1.0  0.7337238503235008  0.30998316816789545  0.2654258133849195  Uiso  ?  O
Ce1  1.0  0.662592583362049  0.3348571603364086  0.3387524375006713  Uiso  ?  Ce
Ce1  1.0  0.7110528012678239  0.33395948599639286  0.2899013287174647  Uiso  ?  Ce
Ce1  1.0  0.6638587053565116  0.2867858111078834  0.19459214750180537  Uiso  ?  Ce
Ce1  1.0  0.7080011733221274  0.28600838256996475  0.23929490754221244  Uiso  ?  Ce
O1  1.0  0.6826975938635972  0.26239688679665657  0.217127002099286  Uiso  ?  O
O1  1.0  0.7326087538777902  0.2648518297696924  0.22047534847729247  Uiso  ?  O
O1  1.0  0.6880390970884629  0.3130144662688399  0.2184705673233997  Uiso  ?  O
O1  1.0  0.7336796103921855  0.3067008005042937  0.2165237362269647  Uiso  ?  O
O1  1.0  0.6855242902187275  0.25999077102112667  0.17088582331983257  Uiso  ?  O
O1  1.0  0.7333349114125696  0.2628781915660505  0.17309532996507532  Uiso  ?  O
O1  1.0  0.6879230465150201  0.3110420184372769  0.17046676251225457  Uiso  ?  O
O1  1.0  0.733819387308805  0.309693098217516  0.16783264708986756  Uiso  ?  O
Ce1  1.0  0.6605253538873747  0.3337188884006088  0.23877461264856487  Uiso  ?  Ce
Ce1  1.0  0.7116029671260717  0.33265903965481436  0.195700825622746  Uiso  ?  Ce
O1  1.0  0.781954328270688  0.2600287155988273  0.9376971039783993  Uiso  ?  O
O1  1.0  0.7807467269084213  0.31138385293057474  0.9397064845484435  Uiso  ?  O
Ce1  1.0  0.7593827978215724  0.28372985161850184  0.8653930717639717  Uiso  ?  Ce
Ce1  1.0  0.8082919653724838  0.287708241624918  0.9130343105802846  Uiso  ?  Ce
O1  1.0  0.7859710970192347  0.2603083350887286  0.8889884563918297  Uiso  ?  O
O1  1.0  0.7849061131591105  0.3097703222083106  0.8858037566630506  Uiso  ?  O
O1  1.0  0.7799938887675729  0.26017598082157806  0.8411129145842031  Uiso  ?  O
O1  1.0  0.7825371706366816  0.30829273023095477  0.8393209581939679  Uiso  ?  O
Ce1  1.0  0.7557018713802276  0.33679678751437825  0.91269256976975  Uiso  ?  Ce
Ce1  1.0  0.8025210569809978  0.3345460083792506  0.8623467110812361  Uiso  ?  Ce
Ce1  1.0  0.7587211565233754  0.2879864701510737  0.769659226261044  Uiso  ?  Ce
Ce1  1.0  0.8069141256366678  0.2875780948651123  0.8174713173622812  Uiso  ?  Ce
O1  1.0  0.7803050859294786  0.2588326813645431  0.7931238264229016  Uiso  ?  O
O1  1.0  0.7835397424924915  0.3083735042929549  0.7930310954004628  Uiso  ?  O
O1  1.0  0.7810082641539852  0.260832410179812  0.7427867655426748  Uiso  ?  O
O1  1.0  0.7814742287435754  0.3112941015795242  0.7421642787956707  Uiso  ?  O
Ce1  1.0  0.7550825133761546  0.3352149979130478  0.8175951623382115  Uiso  ?  Ce
Ce1  1.0  0.8045224462466847  0.3352388929570131  0.7674219017064973  Uiso  ?  Ce
Ce1  1.0  0.7567038843386101  0.2851390019384642  0.6792038673269795  Uiso  ?  Ce
Ce1  1.0  0.8063400129431268  0.2866537154589724  0.7229079740020036  Uiso  ?  Ce
O1  1.0  0.7799471885869159  0.2629480493606705  0.694109291405548  Uiso  ?  O
O1  1.0  0.783085322160133  0.3088056121717929  0.6928747518291687  Uiso  ?  O
O1  1.0  0.7831894262643542  0.25926177499226843  0.6473409862223583  Uiso  ?  O
O1  1.0  0.7810743111985274  0.31073772848596115  0.6469958640729262  Uiso  ?  O
Ce1  1.0  0.758514401368  0.33298556637623733  0.7177513503176991  Uiso  ?  Ce
Ce1  1.0  0.8030934426477474  0.3340424511400504  0.6740187495835264  Uiso  ?  Ce
Ce1  1.0  0.7575263162093602  0.2846098878064172  0.5751571235597436  Uiso  ?  Ce
Ce1  1.0  0.8055545892620262  0.2863900558815047  0.62634597974532  Uiso  ?  Ce
O1  1.0  0.781240156621735  0.2648862066013488  0.5985579509106157  Uiso  ?  O
O1  1.0  0.7839114520724471  0.3084552897774162  0.5998537325416876  Uiso  ?  O
O1  1.0  0.780658365921168  0.26484755904642177  0.5549042668667481  Uiso  ?  O
O1  1.0  0.7797409194397351  0.31122241911150816  0.5536707326069462  Uiso  ?  O
Ce1  1.0  0.7569492718458136  0.3341431882059586  0.6260579356422239  Uiso  ?  Ce
Ce1  1.0  0.8069094267971197  0.3361171935957542  0.5787305602579816  Uiso  ?  Ce
Ce1  1.0  0.7597891343910663  0.2873847658632796  0.4821826344831972  Uiso  ?  Ce
Ce1  1.0  0.8068969166279272  0.28660266713588867  0.5309362815533013  Uiso  ?  Ce
O1  1.0  0.7835107956904528  0.261430837432913  0.5049573745904121  Uiso  ?  O
O1  1.0  0.779259505388291  0.31005245223877287  0.5067216629704603  Uiso  ?  O
O1  1.0  0.7801415558016475  0.2638484280956734  0.4589768706762229  Uiso  ?  O
O1  1.0  0.7830860932836852  0.311181363107153  0.45943147927768846  Uiso  ?  O
Ce1  1.0  0.759824761093756  0.3365203920030229  0.5285504516749111  Uiso  ?  Ce
Ce1  1.0  0.8075719065194784  0.33337335147607267  0.4807014283341068  Uiso  ?  Ce
Ce1  1.0  0.7556706304186305  0.28546765274443164  0.3861835862960744  Uiso  ?  Ce
Ce1  1.0  0.8049991332158596  0.28395016787896415  0.43165511026385994  Uiso  ?  Ce
O1  1.0  0.7816215339882859  0.26266915128735785  0.40685748874548594  Uiso  ?  O
O1  1.0  0.7783782631169103  0.3082713915696855  0.4081290221852461  Uiso  ?  O
O1  1.0  0.7818577291477682  0.26116983977167324  0.3622367309298884  Uiso  ?  O
O1  1.0  0.7828068683238514  0.31010595168262167  0.36025291211940325  Uiso  ?  O
Ce1  1.0  0.7592511125880352  0.3317762116979831  0.4342056646002616  Uiso  ?  Ce
Ce1  1.0  0.8031668463296747  0.3322592310840578  0.3867622760622027  Uiso  ?  Ce
Ce1  1.0  0.7568741117281106  0.28802028790629314  0.28766848581247006  Uiso  ?  Ce
Ce1  1.0  0.8053583790334432  0.28606924311021664  0.33659882834077615  Uiso  ?  Ce
O1  1.0  0.7804194903945277  0.26233759384604327  0.3113971826228464  Uiso  ?  O
O1  1.0  0.7825828062059692  0.3092094111447993  0.3156524470669476  Uiso  ?  O
O1  1.0  0.7847324874006026  0.26238984340849114  0.26932070370606925  Uiso  ?  O
O1  1.0  0.782301172530771  0.3132298773839668  0.2655486938694881  Uiso  ?  O
Ce1  1.0  0.7574166276952118  0.33473214034460486  0.33797061643430953  Uiso  ?  Ce
Ce1  1.0  0.8047553282818358  0.33461998417566385  0.2908745210214133  Uiso  ?  Ce
Ce1  1.0  0.7598627601019013  0.2876376374716227  0.1933974272958817  Uiso  ?  Ce
Ce1  1.0  0.8063538094970346  0.28782847036141196  0.2409445048240334  Uiso  ?  Ce
O1  1.0  0.7829273897498946  0.26415995531757547  0.2153617363070095  Uiso  ?  O
O1  1.0  0.7819622326859198  0.3098140705641365  0.21787216864604148  Uiso  ?  O
O1  1.0  0.7818929690224606  0.2618430087165527  0.16785991361766853  Uiso  ?  O
O1  1.0  0.7836105321962948  0.30988281024754627  0.16557977955684397  Uiso  ?  O
Ce1  1.0  0.7562358247470119  0.3357235087035351  0.24233003445293302  Uiso  ?  Ce
Ce1  1.0  0.805177763209433  0.33084370699214055  0.19610778400955647  Uiso  ?  Ce
O1  1.0  0.20705119878270858  0.2144958216690753  0.9362175187480851  Uiso  ?  O
O1  1.0  0.2552953906852871  0.21104744990659  0.9376916531604201  Uiso  ?  O
Ce1  1.0  0.18466364617338113  0.18902715181039045  0.865379483752858  Uiso  ?  Ce
Ce1  1.0  0.2296763971614512  0.1918408813120682  0.9116888148300095  Uiso  ?  Ce
O1  1.0  0.20756418896210269  0.21098119428854645  0.8899749499206937  Uiso  ?  O
O1  1.0  0.25478341659710274  0.21338264946979935  0.889260269062742  Uiso  ?  O
O1  1.0  0.20373574187400076  0.21087522513466875  0.8416502931366795  Uiso  ?  O
O1  1.0  0.2547132283172158  0.2109620189195828  0.8422028999482399  Uiso  ?  O
Ce1  1.0  0.1840826805428988  0.23679987420135018  0.9165511306113463  Uiso  ?  Ce
Ce1  1.0  0.22639985039383786  0.2379064854761396  0.8638609869557533  Uiso  ?  Ce
Ce1  1.0  0.18330116876945476  0.18937998353678762  0.7695099186078918  Uiso  ?  Ce
Ce1  1.0  0.2295955911125231  0.18874906873909217  0.8164972682144737  Uiso  ?  Ce
O1  1.0  0.2071204341996969  0.21446409111157774  0.7933747122057698  Uiso  ?  O
O1  1.0  0.2556921164954141  0.21635696301478632  0.7897031986210461  Uiso  ?  O
O1  1.0  0.2083967492294164  0.21150936452469157  0.7473026410680678  Uiso  ?  O
O1  1.0  0.2568133672973941  0.212409453017416  0.7441048664625678  Uiso  ?  O
Ce1  1.0  0.18416401670638105  0.23933438179901273  0.8169007882483497  Uiso  ?  Ce
Ce1  1.0  0.22824486242324893  0.23822879554403525  0.7703899894355726  Uiso  ?  Ce
Ce1  1.0  0.1847801317548928  0.1907485719855854  0.6709247647702057  Uiso  ?  Ce
Ce1  1.0  0.23127789298162996  0.19241993681336195  0.7203886634158851  Uiso  ?  Ce
O1  1.0  0.20811701597461713  0.21008062985265605  0.6963450977515361  Uiso  ?  O
O1  1.0  0.2545706422396601  0.2122696099784101  0.6992409024529423  Uiso  ?  O
O1  1.0  0.2076183767588442  0.2179938598021771  0.6491085802975431  Uiso  ?  O
O1  1.0  0.25679458285575957  0.21431461674431704  0.6489267501393825  Uiso  ?  O
Ce1  1.0  0.18318634944177253  0.2376237545360652  0.721647515928409  Uiso  ?  Ce
Ce1  1.0  0.23241503083207649  0.23868156758100184  0.6743351536908287  Uiso  ?  Ce
Ce1  1.0  0.18425233900191235  0.1899965219422651  0.5770000049130136  Uiso  ?  Ce
Ce1  1.0  0.23161987811435686  0.18789403713419836  0.6304099778493446  Uiso  ?  Ce
O1  1.0  0.20806578629899988  0.2138017693933157  0.598164501473347  Uiso  ?  O
O1  1.0  0.2548732323185036  0.21252485934531543  0.6010569987003386  Uiso  ?  O
O1  1.0  0.20956922787084067  0.21470917422281255  0.555961280633956  Uiso  ?  O
O1  1.0  0.25391296661705903  0.2138995286528321  0.5553865728399718  Uiso  ?  O
Ce1  1.0  0.18382050680593176  0.23566864445658156  0.6272962157384067  Uiso  ?  Ce
Ce1  1.0  0.23022225869455018  0.2393069015089485  0.5791836578844831  Uiso  ?  Ce
Ce1  1.0  0.18298091570070593  0.18738629882168176  0.48369720861265963  Uiso  ?  Ce
Ce1  1.0  0.2259544836312346  0.18780428842341343  0.5276849874076802  Uiso  ?  Ce
O1  1.0  0.2033413369738402  0.21519266969405595  0.5059523709218914  Uiso  ?  O
O1  1.0  0.2579223304040506  0.21181135632166664  0.5058403171313848  Uiso  ?  O
O1  1.0  0.2086125334527559  0.21109623875428446  0.4548681578527216  Uiso  ?  O
O1  1.0  0.25040390009884905  0.21334483689616285  0.45810857990525067  Uiso  ?  O
Ce1  1.0  0.1837877443600153  0.23994507973446233  0.5271506553325156  Uiso  ?  Ce
Ce1  1.0  0.2309080790142278  0.23835307487570231  0.4788054249033128  Uiso  ?  Ce
Ce1  1.0  0.18267854816912157  0.18859262280776523  0.38948654505520264  Uiso  ?  Ce
Ce1  1.0  0.23237986573740718  0.18799995433542105  0.4327272359411173  Uiso  ?  Ce
O1  1.0  0.20572081014364124  0.21506647101625173  0.410170777467045  Uiso  ?  O
O1  1.0  0.25400981735490596  0.21370687177523642  0.4104227554492195  Uiso  ?  O
O1  1.0  0.20742935827678183  0.21235337310294708  0.3604464502915967  Uiso  ?  O
O1  1.0  0.2495412219526338  0.2133966613055765  0.35954752675803237  Uiso  ?  O
Ce1  1.0  0.18199937441704586  0.23621680458277533  0.43407400085014625  Uiso  ?  Ce
Ce1  1.0  0.23180093052151132  0.23730296221837688  0.38882695305633863  Uiso  ?  Ce
Ce1  1.0  0.18598609603629818  0.19038939411237113  0.28977093122578124  Uiso  ?  Ce
Ce1  1.0  0.22927358872835094  0.19005813275870095  0.33991020889563395  Uiso  ?  Ce
O1  1.0  0.2101041936618321  0.2119622092305402  0.31503502692286983  Uiso  ?  O
O1  1.0  0.2526723006539259  0.21341349093928866  0.3121592822345732  Uiso  ?  O
O1  1.0  0.2075939840012941  0.2147242338189877  0.2641876799750228  Uiso  ?  O
O1  1.0  0.2535211498017549  0.21310832987173509  0.263179168727259  Uiso  ?  O
Ce1  1.0  0.18741593556659075  0.23898123374823024  0.33962400772839  Uiso  ?  Ce
Ce1  1.0  0.23138622490378297  0.23714305599820942  0.29016857365227167  Uiso  ?  Ce
Ce1  1.0  0.18497992222126008  0.1924689672787486  0.1935130948831701  Uiso  ?  Ce
Ce1  1.0  0.22987891706719546  0.1911751008141014  0.24176141036368776  Uiso  ?  Ce
O1  1.0  0.20792841360692582  0.2138558654524497  0.2183852422367181  Uiso  ?  O
O1  1.0  0.2554579682504028  0.2139845624548213  0.21990166538422817  Uiso  ?  O
O1  1.0  0.20752096595527408  0.21451572891427498  0.16891620713554814  Uiso  ?  O
O1  1.0  0.25427522315131984  0.2147241385354615  0.17066772573926559  Uiso  ?  O
Ce1  1.0  0.18205531078992188  0.23745019562795489  0.2385842549019859  Uiso  ?  Ce
Ce1  1.0  0.2280163266001854  0.2383989386770792  0.19477258792566288  Uiso  ?  Ce
Ce1  1.0  0.1832578128884292  0.1871484024543461  0.09562465802388755  Uiso  ?  Ce
Ce1  1.0  0.2338828151636549  0.1897934794016547  0.14429876612486842  Uiso  ?  Ce
O1  1.0  0.20517525748215057  0.21419798633531692  0.12311803853823308  Uiso  ?  O
O1  1.0  0.2524777212950778  0.2139629804434371  0.11960403013248513  Uiso  ?  O
Ce1  1.0  0.18510694029847555  0.23485365708749104  0.1436587219607965  Uiso  ?  Ce
Ce1  1.0  0.2297084868627822  0.2386410577194817  0.09717584941361908  Uiso  ?  Ce
O1  1.0  0.3005518469984902  0.2140613770452764  0.9370909121419261  Uiso  ?  O
O1  1.0  0.3482899854332807  0.21360302236518572  0.9388707732685986  Uiso  ?  O
Ce1  1.0  0.2795366083459002  0.19186630858963033  0.8653751230913966  Uiso  ?  Ce
Ce1  1.0  0.3254603411417838  0.18962476253325197  0.9163077231961189  Uiso  ?  Ce
O1  1.0  0.3034735347104992  0.21694130443859094  0.8883046040263766  Uiso  ?  O
O1  1.0  0.34979236332893626  0.21449767841319511  0.8889010456467161  Uiso  ?  O
O1  1.0  0.29932204877382945  0.2132138107644262  0.8407438340822019  Uiso  ?  O
O1  1.0  0.3484656000930531  0.21436185660386498  0.836401536210806  Uiso  ?  O
Ce1  1.0  0.27908797720262885  0.2401379855988111  0.9147198705705201  Uiso  ?  Ce
Ce1  1.0  0.3263386136478104  0.24068787532773334  0.8649895475417592  Uiso  ?  Ce
Ce1  1.0  0.27433971769532256  0.191330572984432  0.7680794573788026  Uiso  ?  Ce
Ce1  1.0  0.32624207010168393  0.19061616744048646  0.8181471340929355  Uiso  ?  Ce
O1  1.0  0.30170721628077274  0.21457915889493076  0.789596987112279  Uiso  ?  O
O1  1.0  0.35087879387587384  0.2118103576646655  0.7934525800335771  Uiso  ?  O
O1  1.0  0.300685261078356  0.21273410685111752  0.7463584394970133  Uiso  ?  O
O1  1.0  0.3461114569459072  0.21266270829839568  0.7458486220254551  Uiso  ?  O
Ce1  1.0  0.27836902169902533  0.2376655029848938  0.8190384485763196  Uiso  ?  Ce
Ce1  1.0  0.32581579213284173  0.24101951966521812  0.7732622763146068  Uiso  ?  Ce
Ce1  1.0  0.2795388099777662  0.19082658395974778  0.6713044556414364  Uiso  ?  Ce
Ce1  1.0  0.32492907902295937  0.18874691082329886  0.7189269520809756  Uiso  ?  Ce
O1  1.0  0.30085003658069864  0.21307048192516898  0.6986221708399142  Uiso  ?  O
O1  1.0  0.35081024327634963  0.2105301441852039  0.6989282644467365  Uiso  ?  O
O1  1.0  0.3042411800031141  0.21143198569829005  0.6481141715113763  Uiso  ?  O
O1  1.0  0.35077924219190526  0.21113255626691743  0.6500718778205687  Uiso  ?  O
Ce1  1.0  0.2764696139824342  0.23937619425570994  0.7191564216078538  Uiso  ?  Ce
Ce1  1.0  0.3276585098944311  0.23689092428526173  0.6718780654110637  Uiso  ?  Ce
Ce1  1.0  0.2783871038711279  0.18766470158718193  0.5794802355140594  Uiso  ?  Ce
Ce1  1.0  0.32827673132613727  0.1886638655426135  0.6229374613456697  Uiso  ?  Ce
O1  1.0  0.29803538639736  0.215258517355751  0.6026613854458585  Uiso  ?  O
O1  1.0  0.35009661435164197  0.2145327704557241  0.6014271815694907  Uiso  ?  O
O1  1.0  0.30662643151717606  0.2139879837440122  0.5525075362707739  Uiso  ?  O
O1  1.0  0.3490209679582725  0.21241915563524483  0.5550657834654011  Uiso  ?  O
Ce1  1.0  0.27886090876729785  0.2392679000460515  0.6260881812433793  Uiso  ?  Ce
Ce1  1.0  0.32819535355470636  0.23992638331167945  0.5771993196878596  Uiso  ?  Ce
Ce1  1.0  0.27721481294459704  0.19098892274092583  0.47867353067231116  Uiso  ?  Ce
Ce1  1.0  0.32917533849145403  0.1889770825244783  0.5347305595929146  Uiso  ?  Ce
O1  1.0  0.30314094640812117  0.21452357768496813  0.505225882565455  Uiso  ?  O
O1  1.0  0.35023073230716334  0.21382651253572907  0.5068628165460374  Uiso  ?  O
O1  1.0  0.30039907639774005  0.21526679880714533  0.45705540751190554  Uiso  ?  O
O1  1.0  0.3493346111634981  0.21520016005819373  0.4565445880664073  Uiso  ?  O
Ce1  1.0  0.28167925040798897  0.23890368877073584  0.5326039755782972  Uiso  ?  Ce
Ce1  1.0  0.32910126868148565  0.23837908444928796  0.4824240946603486  Uiso  ?  Ce
Ce1  1.0  0.2759985375190931  0.18714506832197797  0.38761870624078715  Uiso  ?  Ce
Ce1  1.0  0.32884272961681726  0.1874955651570483  0.4314509163222165  Uiso  ?  Ce
O1  1.0  0.30116326052616466  0.21254274151761954  0.409795766243916  Uiso  ?  O
O1  1.0  0.3489454796315384  0.2129702824718901  0.4110128689095698  Uiso  ?  O
O1  1.0  0.3038349346970421  0.21310431562105148  0.3638587362937316  Uiso  ?  O
O1  1.0  0.34858904237693084  0.21405807563482676  0.36021376988412374  Uiso  ?  O
Ce1  1.0  0.2765579234336425  0.23691876505867954  0.4318792432051703  Uiso  ?  Ce
Ce1  1.0  0.32735844191723545  0.2379904989396836  0.388303233028787  Uiso  ?  Ce
Ce1  1.0  0.28346012206135457  0.18908862759449793  0.2889158106353708  Uiso  ?  Ce
Ce1  1.0  0.32683823782959764  0.1892215520933429  0.3354285263428636  Uiso  ?  Ce
O1  1.0  0.3022164298630685  0.21328131096237743  0.31347275479884884  Uiso  ?  O
O1  1.0  0.348579064346539  0.21327141099100777  0.3133842852760784  Uiso  ?  O
O1  1.0  0.29958453606103486  0.21373233496222563  0.26488299201401444  Uiso  ?  O
O1  1.0  0.35011402791636814  0.21298248428676764  0.2629945552750896  Uiso  ?  O
Ce1  1.0  0.2792017418727072  0.23680621667059626  0.33666587882043864  Uiso  ?  Ce
Ce1  1.0  0.32754463414140017  0.2358582569982374  0.29287751731841005  Uiso  ?  Ce
Ce1  1.0  0.27947467304002604  0.18723232793278705  0.19457323169060536  Uiso  ?  Ce
Ce1  1.0  0.3268986555068103  0.19278772078222067  0.2408002622181704  Uiso  ?  Ce
O1  1.0  0.303066721977065  0.21343493808756397  0.2190065911097188  Uiso  ?  O
O1  1.0  0.35046181307831153  0.21693620399266184  0.21848908540832246  Uiso  ?  O
O1  1.0  0.30348621921779734  0.21466291543667243  0.1702763272686398  Uiso  ?  O
O1  1.0  0.3506243966020072  0.216213665446747  0.16878710249743462  Uiso  ?  O
Ce1  1.0  0.27983737457401636  0.23945768635721965  0.2404090669821314  Uiso  ?  Ce
Ce1  1.0  0.326470944740309  0.23856248261745802  0.19417472934558339  Uiso  ?  Ce
Ce1  1.0  0.2798924021960635  0.19369776946569073  0.09800747053950341  Uiso  ?  Ce
Ce1  1.0  0.32641129666695007  0.18724825814959475  0.14262878535806361  Uiso  ?  Ce
O1  1.0  0.30320259526671156  0.21431943069836873  0.11932569663815165  Uiso  ?  O
O1  1.0  0.3515563149622487  0.21101418981483172  0.1193421427378633  Uiso  ?  O
Ce1  1.0  0.2767373327956476  0.2402976895533514  0.14476406576994072  Uiso  ?  Ce
Ce1  1.0  0.3253280522437397  0.2379328923904605  0.09563626778134177  Uiso  ?  Ce
O1  1.0  0.39835393922940354  0.2115999283644642  0.939316552047861  Uiso  ?  O
O1  1.0  0.44592502616534435  0.21382462690471224  0.9392433692484393  Uiso  ?  O
Ce1  1.0  0.3754371479951011  0.19165259719484473  0.8638924602232846  Uiso  ?  Ce
Ce1  1.0  0.4233004519686175  0.19082319685913599  0.9129553518952633  Uiso  ?  Ce
O1  1.0  0.3997492913247474  0.21598395371026052  0.8891596166728123  Uiso  ?  O
O1  1.0  0.44784131179248704  0.215840114206448  0.8915329856570202  Uiso  ?  O
O1  1.0  0.39658017051087535  0.21254107461733757  0.8411099126122457  Uiso  ?  O
O1  1.0  0.4467034069148875  0.2154477345664385  0.8445165019487388  Uiso  ?  O
Ce1  1.0  0.3744760842682659  0.23714964568216665  0.9125819199282494  Uiso  ?  Ce
Ce1  1.0  0.4214344901517182  0.23840081252249856  0.8649333580359234  Uiso  ?  Ce
Ce1  1.0  0.3758551347033445  0.18723662192083704  0.7707780800635181  Uiso  ?  Ce
Ce1  1.0  0.4234142831803156  0.18939504510110658  0.817424387375013  Uiso  ?  Ce
O1  1.0  0.39968712965068165  0.21455484139469946  0.7941149500700608  Uiso  ?  O
O1  1.0  0.4488032908319236  0.21434376734874408  0.7937445676259074  Uiso  ?  O
O1  1.0  0.39721256008375294  0.21491073212358572  0.7474547719919276  Uiso  ?  O
O1  1.0  0.443564258526296  0.21417198266364548  0.7473712570506776  Uiso  ?  O
Ce1  1.0  0.3767498278026479  0.2386908089795787  0.8152108367527253  Uiso  ?  Ce
Ce1  1.0  0.42313718824714736  0.24028970038342137  0.7670500139908095  Uiso  ?  Ce
Ce1  1.0  0.3740799904686682  0.18629225451820552  0.6739888716153948  Uiso  ?  Ce
Ce1  1.0  0.42539960628658735  0.1895621763910999  0.7236983441001072  Uiso  ?  Ce
O1  1.0  0.39887348078364177  0.21349976712613833  0.694648958483381  Uiso  ?  O
O1  1.0  0.44700914870931524  0.21357667230715924  0.6967313753714331  Uiso  ?  O
O1  1.0  0.39875057078639414  0.2124394087225814  0.6500794096723138  Uiso  ?  O
O1  1.0  0.4453951933013074  0.21325517040214978  0.6516285465768259  Uiso  ?  O
Ce1  1.0  0.3762107994032226  0.23562641079490654  0.7239278108962136  Uiso  ?  Ce
Ce1  1.0  0.4239582572754047  0.23487571911694097  0.6718886127576118  Uiso  ?  Ce
Ce1  1.0  0.3754359813360405  0.19183613982025438  0.5743817341703621  Uiso  ?  Ce
Ce1  1.0  0.42027476989252605  0.19058313558106382  0.6225519568604907  Uiso  ?  Ce
O1  1.0  0.39948093187987105  0.21406076100058882  0.5990240498009456  Uiso  ?  O
O1  1.0  0.44515933386382606  0.21328858314318525  0.6015391834978526  Uiso  ?  O
O1  1.0  0.39979447175685245  0.21553960743725015  0.5550868791529942  Uiso  ?  O
O1  1.0  0.4469408371788954  0.2155521448406831  0.5540719241587246  Uiso  ?  O
Ce1  1.0  0.3767996537561231  0.23742641203203893  0.6239109064734543  Uiso  ?  Ce
Ce1  1.0  0.42300876298616624  0.23601344015546438  0.5766995989302278  Uiso  ?  Ce
Ce1  1.0  0.3750945547303559  0.18826069736010242  0.48166152389355094  Uiso  ?  Ce
Ce1  1.0  0.4205144901307614  0.19043743015641748  0.5265918107826281  Uiso  ?  Ce
O1  1.0  0.3981932234733548  0.2139335647426328  0.5042904239179223  Uiso  ?  O
O1  1.0  0.4466757265635501  0.213684759664683  0.5051495148830945  Uiso  ?  O
O1  1.0  0.3956958355306952  0.21253714747430874  0.45669705460060517  Uiso  ?  O
O1  1.0  0.44694762761714124  0.21209746894507348  0.45727248873304366  Uiso  ?  O
Ce1  1.0  0.3727536497263636  0.23632655177800507  0.5264431393330123  Uiso  ?  Ce
Ce1  1.0  0.4233320677170005  0.23933017564211298  0.4828394919142212  Uiso  ?  Ce
Ce1  1.0  0.3746419414034552  0.18998698080522777  0.3855423530640317  Uiso  ?  Ce
Ce1  1.0  0.42195776179484723  0.185804580270642  0.43270225459860895  Uiso  ?  Ce
O1  1.0  0.39973973674894125  0.21376625740557062  0.4121254373488709  Uiso  ?  O
O1  1.0  0.44608978884462175  0.21424694533135272  0.40973477379903717  Uiso  ?  O
O1  1.0  0.40108552773564127  0.21416103474634793  0.36251606992581703  Uiso  ?  O
O1  1.0  0.4481341439180073  0.2150317835506472  0.3626539381325805  Uiso  ?  O
Ce1  1.0  0.3716846745176826  0.2355531359321823  0.43273524972015015  Uiso  ?  Ce
Ce1  1.0  0.42052852842993355  0.23738611063675127  0.38603651900330427  Uiso  ?  Ce
Ce1  1.0  0.37546063443852795  0.189502618839781  0.29019898208535333  Uiso  ?  Ce
Ce1  1.0  0.423453947759694  0.19033130273061025  0.3353668112118902  Uiso  ?  Ce
O1  1.0  0.39657792246718615  0.20829706462392517  0.3127804660607292  Uiso  ?  O
O1  1.0  0.4477089760988367  0.21261270127551055  0.3148769065373794  Uiso  ?  O
O1  1.0  0.39978502986248005  0.21346771602524262  0.2681725396675585  Uiso  ?  O
O1  1.0  0.4459445852595316  0.21456932880738133  0.2655580991722298  Uiso  ?  O
Ce1  1.0  0.37017197188411244  0.2399559554825474  0.3375002698820074  Uiso  ?  Ce
Ce1  1.0  0.4213588580975006  0.23518578402590062  0.2910696686670009  Uiso  ?  Ce
Ce1  1.0  0.378129349790374  0.18834820229201735  0.1937225984732664  Uiso  ?  Ce
Ce1  1.0  0.4231346650522903  0.18832471204203013  0.2426200370502119  Uiso  ?  Ce
O1  1.0  0.3985219188760715  0.21441705511998058  0.2181593710600409  Uiso  ?  O
O1  1.0  0.44615833713265873  0.21533428987000414  0.21751877190039734  Uiso  ?  O
O1  1.0  0.3971355571856551  0.21303273146015278  0.1663497142472083  Uiso  ?  O
O1  1.0  0.4479446411156786  0.21337482015071893  0.16982357354734728  Uiso  ?  O
Ce1  1.0  0.37678145363983817  0.24117235847068366  0.24223566505871852  Uiso  ?  Ce
Ce1  1.0  0.4258204210595815  0.23472678268293015  0.19149572561343528  Uiso  ?  Ce
Ce1  1.0  0.37570523965088554  0.18978057043069288  0.09905919326318689  Uiso  ?  Ce
Ce1  1.0  0.42277659814851165  0.1913404177820233  0.143209465901753  Uiso  ?  Ce
O1  1.0  0.40420025286229294  0.21264173249817236  0.12120826805006088  Uiso  ?  O
O1  1.0  0.44509669834339505  0.2115829814243474  0.12353807830173887  Uiso  ?  O
Ce1  1.0  0.3708868662679312  0.23736330794255478  0.14532437582955834  Uiso  ?  Ce
Ce1  1.0  0.4222664567469653  0.23687243081364856  0.09562217474413065  Uiso  ?  Ce
O1  1.0  0.4968985411075206  0.21585718418232375  0.9388900662575383  Uiso  ?  O
O1  1.0  0.5450320704643139  0.21375584704611103  0.9362220789320231  Uiso  ?  O
Ce1  1.0  0.47350802073126147  0.19104327835066168  0.8675888435282622  Uiso  ?  Ce
Ce1  1.0  0.517394199715963  0.18824179438424296  0.9127910457241515  Uiso  ?  Ce
O1  1.0  0.49758271072192795  0.21174044222758792  0.8885970753009497  Uiso  ?  O
O1  1.0  0.5430431439379  0.21595055600869048  0.8897585865522226  Uiso  ?  O
O1  1.0  0.49131478851116495  0.2141670439230846  0.8424018157556497  Uiso  ?  O
O1  1.0  0.5464646311574058  0.2134222529413837  0.8411807103307343  Uiso  ?  O
Ce1  1.0  0.4711248724187903  0.23953964124401306  0.9150654409646618  Uiso  ?  Ce
Ce1  1.0  0.5183846714975912  0.236880567126728  0.8665323817733077  Uiso  ?  Ce
Ce1  1.0  0.4718671316569671  0.1914854318143289  0.7697879625186602  Uiso  ?  Ce
Ce1  1.0  0.5182269561046848  0.19173100250090497  0.8201294290537683  Uiso  ?  Ce
O1  1.0  0.4959032205208701  0.21381269072042566  0.7963549412425105  Uiso  ?  O
O1  1.0  0.5446431709933529  0.2123697837138914  0.7942597257735783  Uiso  ?  O
O1  1.0  0.49354673519217396  0.21557140652781856  0.7426057476672526  Uiso  ?  O
O1  1.0  0.5414026959065433  0.21184103751149397  0.7447540493509976  Uiso  ?  O
Ce1  1.0  0.4680923381009706  0.2390787372874565  0.8128191101654226  Uiso  ?  Ce
Ce1  1.0  0.5200008584715274  0.23691748031326304  0.7672221444742097  Uiso  ?  Ce
Ce1  1.0  0.47097582422166967  0.19055086467924587  0.6734034265482514  Uiso  ?  Ce
Ce1  1.0  0.5158765178317569  0.18852425182901542  0.7213368002409403  Uiso  ?  Ce
O1  1.0  0.49518014302658664  0.2166917221504044  0.6978645282409804  Uiso  ?  O
O1  1.0  0.5412209121095708  0.21214277435479673  0.6980080438619144  Uiso  ?  O
O1  1.0  0.49201775721660485  0.21509105919514196  0.6518568226706036  Uiso  ?  O
O1  1.0  0.5445922729769523  0.2142794755511028  0.648894266493466  Uiso  ?  O
Ce1  1.0  0.47087885510826005  0.23921683095287666  0.7185956106093082  Uiso  ?  Ce
Ce1  1.0  0.5131074373157403  0.23885685637512938  0.6736017808414368  Uiso  ?  Ce
Ce1  1.0  0.47249558592566676  0.18949168187776683  0.575102899766382  Uiso  ?  Ce
Ce1  1.0  0.5201540682021825  0.19175733287015734  0.6222504171906977  Uiso  ?  Ce
O1  1.0  0.4942177373757905  0.21569513316060349  0.6005979214932011  Uiso  ?  O
O1  1.0  0.5438569736157356  0.21415408874871913  0.6042581020499413  Uiso  ?  O
O1  1.0  0.4943531109564818  0.21407717372088428  0.553601118241676  Uiso  ?  O
O1  1.0  0.5416942408988625  0.21296209878219763  0.5538276435573924  Uiso  ?  O
Ce1  1.0  0.4710061494927558  0.23928351107241902  0.6257447273083903  Uiso  ?  Ce
Ce1  1.0  0.5177150189237049  0.23499072586336459  0.5765185490376152  Uiso  ?  Ce
Ce1  1.0  0.4697881363100932  0.18997153034979372  0.48255428323998445  Uiso  ?  Ce
Ce1  1.0  0.5197133905936336  0.18989988234948638  0.5283210138563035  Uiso  ?  Ce
O1  1.0  0.49355163521201134  0.21225924993334522  0.5058103187981222  Uiso  ?  O
O1  1.0  0.5438510501882944  0.21462118816539755  0.5060089494776256  Uiso  ?  O
O1  1.0  0.4924986015392634  0.21308436340644546  0.4600001343458785  Uiso  ?  O
O1  1.0  0.5401733885297083  0.2125943877644901  0.4551890937376939  Uiso  ?  O
Ce1  1.0  0.46879582120676855  0.2402638044284706  0.5291717582642083  Uiso  ?  Ce
Ce1  1.0  0.5176391390326663  0.2345981340632182  0.4777634697932592  Uiso  ?  Ce
Ce1  1.0  0.46914036648816076  0.19020650295304728  0.38508916777860014  Uiso  ?  Ce
Ce1  1.0  0.5194185962236978  0.1915199338093927  0.4331352302146145  Uiso  ?  Ce
O1  1.0  0.49434193245239927  0.2147526019864564  0.4104332166667468  Uiso  ?  O
O1  1.0  0.5439442625542772  0.2097391958455078  0.41153675025665093  Uiso  ?  O
O1  1.0  0.4953604956365035  0.2142603903926316  0.35985733658211766  Uiso  ?  O
O1  1.0  0.5439687553140631  0.2127964496591869  0.3619397379945473  Uiso  ?  O
Ce1  1.0  0.46907576342628066  0.23552557294206572  0.43437312789198546  Uiso  ?  Ce
Ce1  1.0  0.5178177346063587  0.2378023703353436  0.38214141986013545  Uiso  ?  Ce
Ce1  1.0  0.47142721954842076  0.19072476589692938  0.28970888408106893  Uiso  ?  Ce
Ce1  1.0  0.5203698553590902  0.19037067869212015  0.33522229809888576  Uiso  ?  Ce
O1  1.0  0.4931686479765824  0.2142802827531986  0.3126993684946448  Uiso  ?  O
O1  1.0  0.5461782930998855  0.21491783020697008  0.3150035758441409  Uiso  ?  O
O1  1.0  0.4961468137399552  0.21558953564821987  0.2661408307324279  Uiso  ?  O
O1  1.0  0.5452817661669502  0.21399799804367525  0.2662260237238019  Uiso  ?  O
Ce1  1.0  0.47265426610185035  0.23876060000614494  0.33826354949594956  Uiso  ?  Ce
Ce1  1.0  0.522475228044208  0.2360061167603455  0.29115372318049676  Uiso  ?  Ce
Ce1  1.0  0.4717971133849145  0.18960983965500267  0.19300033642631184  Uiso  ?  Ce
Ce1  1.0  0.5159039788662839  0.19072741489607387  0.24310184279968863  Uiso  ?  Ce
O1  1.0  0.4934072619902062  0.21162751195836102  0.21618006902882766  Uiso  ?  O
O1  1.0  0.5433449097507046  0.21210375109524648  0.21777115388359022  Uiso  ?  O
O1  1.0  0.495005138539436  0.2166743171680781  0.17239404820975135  Uiso  ?  O
O1  1.0  0.5415628727614586  0.21272200879560482  0.17046165547357525  Uiso  ?  O
Ce1  1.0  0.4711477408341427  0.24118241396971363  0.24140743969272394  Uiso  ?  Ce
Ce1  1.0  0.5209996685526443  0.23722052867875668  0.19406746713011874  Uiso  ?  Ce
Ce1  1.0  0.46718443314367697  0.18822935740032723  0.09759718779174321  Uiso  ?  Ce
Ce1  1.0  0.5195223141177977  0.1904885679781556  0.1432359161230309  Uiso  ?  Ce
O1  1.0  0.4963869886309734  0.21235998829193398  0.12227908597622611  Uiso  ?  O
O1  1.0  0.5435066580521571  0.21357021721066252  0.12033432367048305  Uiso  ?  O
Ce1  1.0  0.46942752685298456  0.2351707797122167  0.14380121198664064  Uiso  ?  Ce
Ce1  1.0  0.51738239886719  0.24023897111335185  0.09659075635302375  Uiso  ?  Ce
O1  1.0  0.5927094000449424  0.21560747459070487  0.9377585860271286  Uiso  ?  O
O1  1.0  0.6386470888667786  0.2157116806640143  0.9384086680523097  Uiso  ?  O
Ce1  1.0  0.5623260289839286  0.19136247948117033  0.8678835177191668  Uiso  ?  Ce
Ce1  1.0  0.6129416038979792  0.18877364869127253  0.9131044842422978  Uiso  ?  Ce
O1  1.0  0.586579253787149  0.21276583682730973  0.8915097858460881  Uiso  ?  O
O1  1.0  0.6353491638424281  0.21366501611224595  0.8873142665625522  Uiso  ?  O
O1  1.0  0.5913136001897851  0.21205028911567209  0.8419750888217323  Uiso  ?  O
O1  1.0  0.6408488781353074  0.21339810861226893  0.8419843552998806  Uiso  ?  O
Ce1  1.0  0.5675590566756206  0.23307179158774496  0.910249998431252  Uiso  ?  Ce
Ce1  1.0  0.6178990940118624  0.2347509071940008  0.8664167867736594  Uiso  ?  Ce
Ce1  1.0  0.5666833437585683  0.19129283871368213  0.7677749936068557  Uiso  ?  Ce
Ce1  1.0  0.6140603916290404  0.18940662464023256  0.8187878887981205  Uiso  ?  Ce
O1  1.0  0.5909341943269062  0.21511403063212203  0.7962342386017087  Uiso  ?  O
O1  1.0  0.6386457827143825  0.2139765172598905  0.7937474179500738  Uiso  ?  O
O1  1.0  0.5923207451838911  0.21166642094400864  0.7445231268778361  Uiso  ?  O
O1  1.0  0.6403772635369673  0.21421209740473268  0.7450932866425916  Uiso  ?  O
Ce1  1.0  0.5696211407351305  0.23701365349782755  0.8172692210019977  Uiso  ?  Ce
Ce1  1.0  0.6139183289171883  0.2365313505402239  0.7699825618345337  Uiso  ?  Ce
Ce1  1.0  0.5677078299146074  0.19049336559815191  0.6739014054546326  Uiso  ?  Ce
Ce1  1.0  0.6142408044920609  0.18929362157601698  0.7233787765264701  Uiso  ?  Ce
O1  1.0  0.5907336743510068  0.2126304968442537  0.6990798228796691  Uiso  ?  O
O1  1.0  0.6407125321613243  0.21660896565057058  0.6956225077833356  Uiso  ?  O
O1  1.0  0.5908480246600385  0.21227224573661196  0.6488561211743618  Uiso  ?  O
O1  1.0  0.641754749622724  0.2125664607719046  0.6477177701225602  Uiso  ?  O
Ce1  1.0  0.5677345085627766  0.23837377439664825  0.7216484302654856  Uiso  ?  Ce
Ce1  1.0  0.6126364621675137  0.23773743217029544  0.6689106941499268  Uiso  ?  Ce
Ce1  1.0  0.566624938648383  0.19018679541416667  0.5777095378063876  Uiso  ?  Ce
Ce1  1.0  0.6116630177337027  0.19029086241869955  0.6230900406464583  Uiso  ?  Ce
O1  1.0  0.5902358425286913  0.21343619007792458  0.6022119249713449  Uiso  ?  O
O1  1.0  0.6414423019294493  0.21289615609273813  0.6001849544044765  Uiso  ?  O
O1  1.0  0.5925556451310663  0.21094150604649953  0.5511669593784237  Uiso  ?  O
O1  1.0  0.6410246493289125  0.21064298316519492  0.5507596956181876  Uiso  ?  O
Ce1  1.0  0.5657733847315107  0.236302451642897  0.6249768716750336  Uiso  ?  Ce
Ce1  1.0  0.6144266011794474  0.2376086493165557  0.5790453510764362  Uiso  ?  Ce
Ce1  1.0  0.5674227400533263  0.19109102202570935  0.48498353734606164  Uiso  ?  Ce
Ce1  1.0  0.613185083120892  0.19030079593490487  0.5264043134235115  Uiso  ?  Ce
O1  1.0  0.5919865007230978  0.21146300211773028  0.5053760360018744  Uiso  ?  O
O1  1.0  0.6374387620823861  0.2160110317384209  0.5068362207162579  Uiso  ?  O
O1  1.0  0.5877231033518547  0.21293266101927188  0.45909307215547  Uiso  ?  O
O1  1.0  0.6391841361286279  0.2162218703776147  0.45803502172654653  Uiso  ?  O
Ce1  1.0  0.5671540353425145  0.24054511996674843  0.5279480217540289  Uiso  ?  Ce
Ce1  1.0  0.6132211498305031  0.23901290620643234  0.4813583918900587  Uiso  ?  Ce
Ce1  1.0  0.5674773867195941  0.19190407552610456  0.38488210454132044  Uiso  ?  Ce
Ce1  1.0  0.6157101853663219  0.18974984826618588  0.4368072774402902  Uiso  ?  Ce
O1  1.0  0.5920300088346298  0.21323196481452317  0.40941017501465005  Uiso  ?  O
O1  1.0  0.6403554287204797  0.21422340081808128  0.4097754800617973  Uiso  ?  O
O1  1.0  0.5902493749526857  0.2117597799699175  0.3601544433230191  Uiso  ?  O
O1  1.0  0.6372149240455589  0.21241599754000373  0.3642304366569199  Uiso  ?  O
Ce1  1.0  0.5641963451029882  0.23740343401236466  0.4345247422030872  Uiso  ?  Ce
Ce1  1.0  0.6135692332701754  0.23644149161641728  0.3819707735780893  Uiso  ?  Ce
Ce1  1.0  0.5657802681717323  0.18869922166015984  0.2887736771818011  Uiso  ?  Ce
Ce1  1.0  0.6135410761171712  0.1900806277955384  0.33628778269860654  Uiso  ?  Ce
O1  1.0  0.5892913811276932  0.21193809847565342  0.31367870419439386  Uiso  ?  O
O1  1.0  0.6361414939967434  0.21360123297932118  0.3121466301905925  Uiso  ?  O
O1  1.0  0.5918266306114688  0.21455330481164225  0.26466777848380685  Uiso  ?  O
O1  1.0  0.6394336348464918  0.21200949071929368  0.2649406755925881  Uiso  ?  O
Ce1  1.0  0.5660454581969446  0.23560504329367637  0.33820893674791946  Uiso  ?  Ce
Ce1  1.0  0.6138741589196006  0.2402615324711547  0.28829252751776585  Uiso  ?  Ce
Ce1  1.0  0.5654907492266605  0.18845141991806902  0.19391550704722635  Uiso  ?  Ce
Ce1  1.0  0.6136107995542882  0.18828256181750033  0.24110456012465528  Uiso  ?  Ce
O1  1.0  0.5929539193842664  0.2138211178452528  0.21701815602574429  Uiso  ?  O
O1  1.0  0.6394542451640899  0.21290696626911856  0.21997444002869573  Uiso  ?  O
O1  1.0  0.5914194219470564  0.21268159821807883  0.16622530009629466  Uiso  ?  O
O1  1.0  0.6378728347665469  0.21497152037134784  0.17091926882816816  Uiso  ?  O
Ce1  1.0  0.5628870685286633  0.2354316192042238  0.24237782996033883  Uiso  ?  Ce
Ce1  1.0  0.6168590483201708  0.24071557929079207  0.19350909859401572  Uiso  ?  Ce
Ce1  1.0  0.566022227136921  0.19025670034923248  0.09613384564825865  Uiso  ?  Ce
Ce1  1.0  0.6143122811080678  0.18872545384622075  0.14608587410295035  Uiso  ?  Ce
O1  1.0  0.5906653239549112  0.21522365166960392  0.12154131342920231  Uiso  ?  O
O1  1.0  0.6367728139390181  0.21378108120898948  0.11995059202060412  Uiso  ?  O
Ce1  1.0  0.5596919393469262  0.23778988325444947  0.14306857962926411  Uiso  ?  Ce
O1  1.0  0.6873422380889332  0.2138098750002181  0.9374768008772693  Uiso  ?  O
O1  1.0  0.7323052824881736  0.2144967084695599  0.9371197733261264  Uiso  ?  O
Ce1  1.0  0.6613174485013129  0.18874820569164547  0.8669583912413161  Uiso  ?  Ce
Ce1  1.0  0.7072641938308272  0.18504642537601002  0.9130828718897043  Uiso  ?  Ce
O1  1.0  0.6844456473571964  0.21524712657139813  0.8866862321764502  Uiso  ?  O
O1  1.0  0.7336858865411059  0.21647731652108448  0.8884468988139137  Uiso  ?  O
O1  1.0  0.6858369283389296  0.21540125372193442  0.8439701743967469  Uiso  ?  O
O1  1.0  0.7345099821184734  0.21626158590847425  0.8381154517302484  Uiso  ?  O
Ce1  1.0  0.6626603269845124  0.23832036310944632  0.9137031597363828  Uiso  ?  Ce
Ce1  1.0  0.7145136038929201  0.23603620397168065  0.8660270031509544  Uiso  ?  Ce
Ce1  1.0  0.6624652796855635  0.18605214420612268  0.7701634571184681  Uiso  ?  Ce
Ce1  1.0  0.7109223195768355  0.18980241244949733  0.8210440655004566  Uiso  ?  Ce
O1  1.0  0.6859602853287703  0.2144045011326084  0.7927486245959576  Uiso  ?  O
O1  1.0  0.7329339041286093  0.21533596545234807  0.791987882002525  Uiso  ?  O
O1  1.0  0.6860963138620824  0.21312104203097923  0.7461070912634963  Uiso  ?  O
O1  1.0  0.7351426491657762  0.2114534742415745  0.7449791667471514  Uiso  ?  O
Ce1  1.0  0.6636856535437702  0.2379661665197736  0.8184799407086651  Uiso  ?  Ce
Ce1  1.0  0.7100827142591429  0.23607353607809312  0.7704632317387701  Uiso  ?  Ce
Ce1  1.0  0.6593038198935086  0.19027633209175507  0.6724070768616904  Uiso  ?  Ce
Ce1  1.0  0.7083259376536036  0.19042202585087808  0.7243060555613375  Uiso  ?  Ce
O1  1.0  0.6860692686804899  0.21306783057149897  0.6983761947986554  Uiso  ?  O
O1  1.0  0.7331344043009245  0.21104078158840078  0.6967982606346663  Uiso  ?  O
O1  1.0  0.6870628052444901  0.2156473247582266  0.649431940595791  Uiso  ?  O
O1  1.0  0.7307258220562837  0.21333268286847198  0.647847468771961  Uiso  ?  O
Ce1  1.0  0.6608808314534821  0.24093790357846367  0.7203996196197197  Uiso  ?  Ce
Ce1  1.0  0.7105466468158048  0.23827215185536685  0.6706779954464024  Uiso  ?  Ce
Ce1  1.0  0.6629005494308429  0.18961394729565495  0.5785923282290265  Uiso  ?  Ce
Ce1  1.0  0.7082811155318604  0.18826788628856733  0.6262298665966244  Uiso  ?  Ce
O1  1.0  0.6881657450820502  0.21572080393080487  0.6007834376694826  Uiso  ?  O
O1  1.0  0.7330291279496803  0.21477674112217798  0.5986286105675045  Uiso  ?  O
O1  1.0  0.6868587046906052  0.21421179458673514  0.5534342165530415  Uiso  ?  O
O1  1.0  0.7349289274112043  0.2159654918145258  0.5529828540061357  Uiso  ?  O
Ce1  1.0  0.6603561323561047  0.23928141599175398  0.6232965450599153  Uiso  ?  Ce
Ce1  1.0  0.7120540112135785  0.23575748595613893  0.5755322734187964  Uiso  ?  Ce
Ce1  1.0  0.6584709449332755  0.1898204365486273  0.4802061231254409  Uiso  ?  Ce
Ce1  1.0  0.7120310527620707  0.19271464631645707  0.5283963113392098  Uiso  ?  Ce
O1  1.0  0.6866836309450146  0.21649007791869543  0.5075859719394379  Uiso  ?  O
O1  1.0  0.7336562900964679  0.21242535689499972  0.5066814333418604  Uiso  ?  O
O1  1.0  0.6885445597097563  0.21483903037173066  0.45843477552069795  Uiso  ?  O
O1  1.0  0.7333116929346972  0.21749533115989075  0.45361395236153196  Uiso  ?  O
Ce1  1.0  0.662498338368456  0.2392865971555028  0.5308351297383065  Uiso  ?  Ce
Ce1  1.0  0.7076759440381538  0.2361983325625912  0.48096877747888866  Uiso  ?  Ce
Ce1  1.0  0.6607510146190222  0.19007689191313035  0.3852363375483821  Uiso  ?  Ce
Ce1  1.0  0.7104119744735934  0.18784970058945752  0.4316498002551516  Uiso  ?  Ce
O1  1.0  0.6865550337382734  0.21482692464392267  0.4100655237956519  Uiso  ?  O
O1  1.0  0.7341755044889337  0.2130476464468664  0.40747317534936145  Uiso  ?  O
O1  1.0  0.6847410063416957  0.2154761238119355  0.36266072273400995  Uiso  ?  O
O1  1.0  0.7334636450897671  0.21648875212027066  0.36240341608260235  Uiso  ?  O
Ce1  1.0  0.6592829946624524  0.23652256302188765  0.4321347903138654  Uiso  ?  Ce
Ce1  1.0  0.7077994294141396  0.236386481786452  0.38629632619678067  Uiso  ?  Ce
Ce1  1.0  0.659957150771123  0.19136907408203876  0.2901047017724046  Uiso  ?  Ce
Ce1  1.0  0.7102345376943344  0.18542973734431298  0.3390845580533574  Uiso  ?  Ce
O1  1.0  0.6869881452951088  0.20880754685850136  0.3150320206372559  Uiso  ?  O
O1  1.0  0.736607396306214  0.2146964719858694  0.31317626224278383  Uiso  ?  O
O1  1.0  0.6853475845912003  0.21395738611386636  0.2662095984929354  Uiso  ?  O
O1  1.0  0.7305650801942486  0.2130321098117679  0.26314293907579317  Uiso  ?  O
Ce1  1.0  0.6619110743845166  0.23688087645293862  0.3368829921287895  Uiso  ?  Ce
Ce1  1.0  0.7119243465511754  0.23387990161537964  0.2904101772270867  Uiso  ?  Ce
Ce1  1.0  0.6621023341569163  0.18723321723796338  0.19480275625850976  Uiso  ?  Ce
Ce1  1.0  0.7085514492871952  0.18746584618723927  0.24087948547356475  Uiso  ?  Ce
O1  1.0  0.6884143107597033  0.21293220891763381  0.21741239711588806  Uiso  ?  O
O1  1.0  0.7319445543969467  0.21295560183257978  0.2185173255974207  Uiso  ?  O
O1  1.0  0.6883505505715853  0.21259737806161402  0.16737013385154725  Uiso  ?  O
O1  1.0  0.7358203641619809  0.213503234542205  0.16933981280949037  Uiso  ?  O
Ce1  1.0  0.6616549790278602  0.2394239232959822  0.2395628446294745  Uiso  ?  Ce
Ce1  1.0  0.710027254280029  0.23569050865036212  0.19095904749289963  Uiso  ?  Ce
Ce1  1.0  0.7095749843531265  0.18605379325547844  0.1481686875192627  Uiso  ?  Ce
O1  1.0  0.6865556505420651  0.21369717424358042  0.12241742292861973  Uiso  ?  O
Ce1  1.0  0.6625316215586301  0.23687008634260273  0.14703136368463265  Uiso  ?  Ce
O1  1.0  0.7824417854275415  0.21207978748772782  0.9350156194505418  Uiso  ?  O
Ce1  1.0  0.757909411809696  0.1926386944921774  0.8666914100277608  Uiso  ?  Ce
Ce1  1.0  0.8063335890916117  0.18680311249355508  0.9118055942144303  Uiso  ?  Ce
O1  1.0  0.7827971821226855  0.21532141674423966  0.8880524643216084  Uiso  ?  O
O1  1.0  0.7829984836577158  0.2115556242553228  0.841117710033915  Uiso  ?  O
Ce1  1.0  0.7564306635490353  0.2393053673893344  0.9129226402122338  Uiso  ?  Ce
Ce1  1.0  0.8062939901424327  0.23902889253714554  0.864685235110933  Uiso  ?  Ce
Ce1  1.0  0.7597615030371708  0.18680892906577495  0.7691821629955975  Uiso  ?  Ce
Ce1  1.0  0.806466465417232  0.18829855650726368  0.8159221571414508  Uiso  ?  Ce
O1  1.0  0.7827873198423405  0.21303143281054238  0.7952748539361238  Uiso  ?  O
O1  1.0  0.7834176877761903  0.21317359200665795  0.7473482070272291  Uiso  ?  O
Ce1  1.0  0.760597735874115  0.2349334497332043  0.8227179180165795  Uiso  ?  Ce
Ce1  1.0  0.8054048273283189  0.23902081894783367  0.7723032666826682  Uiso  ?  Ce
Ce1  1.0  0.7609096147917548  0.19006885135767707  0.6721522965143766  Uiso  ?  Ce
Ce1  1.0  0.8041576174750957  0.18836571286327028  0.7227282101706591  Uiso  ?  Ce
O1  1.0  0.7849616356043668  0.20989883004895837  0.6976587297408517  Uiso  ?  O
O1  1.0  0.7835528888322922  0.21405829695954753  0.6524884451935741  Uiso  ?  O
Ce1  1.0  0.7567517143998959  0.23896888833680943  0.7233887473120456  Uiso  ?  Ce
Ce1  1.0  0.8042876248185956  0.23416499425558435  0.6727202595892017  Uiso  ?  Ce
Ce1  1.0  0.7591206589888432  0.19205222741452005  0.5787258331840957  Uiso  ?  Ce
Ce1  1.0  0.8058218753738399  0.1908880507423415  0.6279340196808282  Uiso  ?  Ce
O1  1.0  0.7834830805396402  0.21287961242473163  0.6014775489730069  Uiso  ?  O
O1  1.0  0.7816209101475021  0.21313596325297024  0.5536321614437026  Uiso  ?  O
Ce1  1.0  0.756664587264862  0.24180063023765602  0.6262722562958783  Uiso  ?  Ce
Ce1  1.0  0.8070426334907342  0.2427026659193761  0.5789533864754469  Uiso  ?  Ce
Ce1  1.0  0.7596487322659524  0.18632720083640306  0.4811380684211217  Uiso  ?  Ce
Ce1  1.0  0.8074277480836115  0.19138603948588268  0.5302772498398145  Uiso  ?  Ce
O1  1.0  0.7818590695958844  0.21464633000924954  0.5045879657371983  Uiso  ?  O
O1  1.0  0.7816654117810449  0.2158791669909478  0.4514289865487404  Uiso  ?  O
Ce1  1.0  0.7599250552671842  0.2387641018082979  0.5270895725946484  Uiso  ?  Ce
Ce1  1.0  0.8072280251021356  0.23792509514069904  0.4830926447673043  Uiso  ?  Ce
Ce1  1.0  0.7583973312290986  0.19373361418678778  0.38374472146873284  Uiso  ?  Ce
Ce1  1.0  0.807230154543423  0.1881099558572339  0.43623530463113847  Uiso  ?  Ce
O1  1.0  0.7831293715903015  0.21704315528446333  0.40917862252294557  Uiso  ?  O
O1  1.0  0.7828857554411852  0.21525865029129448  0.3625919073012338  Uiso  ?  O
Ce1  1.0  0.7584336794700722  0.23898972426743992  0.43259986069958734  Uiso  ?  Ce
Ce1  1.0  0.8075394438966426  0.2373732811549171  0.38527385849512347  Uiso  ?  Ce
Ce1  1.0  0.755487598137161  0.19088144047498087  0.28943310171709313  Uiso  ?  Ce
Ce1  1.0  0.8065360353244235  0.19066840162225615  0.339669021653671  Uiso  ?  Ce
O1  1.0  0.7833446205102913  0.21352905742159  0.31427150138617405  Uiso  ?  O
O1  1.0  0.7843939831912495  0.2107338627178046  0.2661152232150521  Uiso  ?  O
Ce1  1.0  0.7576301520102918  0.23588598270559893  0.33868742177686084  Uiso  ?  Ce
Ce1  1.0  0.8043860017614869  0.23902937775867003  0.2874407914178648  Uiso  ?  Ce
Ce1  1.0  0.7546724248729733  0.18765244345497825  0.19197355992183623  Uiso  ?  Ce
Ce1  1.0  0.8069639132141357  0.19201561335590958  0.24020319447354394  Uiso  ?  Ce
O1  1.0  0.7854510313482849  0.21328838503266742  0.21719162887567697  Uiso  ?  O
O1  1.0  0.7812849646535049  0.21312692057243923  0.17200279095095397  Uiso  ?  O
Ce1  1.0  0.759254306359487  0.23678217385767136  0.24170478419990696  Uiso  ?  Ce
Ce1  1.0  0.805441766798689  0.23931584222920152  0.19337596446711772  Uiso  ?  Ce
Ce1  1.0  0.806324479316629  0.19257859338500255  0.14318877572891725  Uiso  ?  Ce
Ce1  1.0  0.7576088541564155  0.23651981142785733  0.14656804561423792  Uiso  ?  Ce
