data_global
_audit_creation_method 'Generated by Python Script'

_symmetry_space_group_name_H-M 'P 1'
_symmetry_Int_Tables_number 1
_symmetry_cell_setting triclinic
loop_
_symmetry_equiv_pos_as_xyz
  'x, y, z'

_cell_length_a    66.0136897999247
_cell_length_b    66.0136897999247
_cell_length_c    66.0136897999247
_cell_angle_alpha 90.0
_cell_angle_beta  90.0
_cell_angle_gamma 90.0

loop_
_atom_site_label
_atom_site_occupancy
_atom_site_fract_x
_atom_site_fract_y
_atom_site_fract_z
_atom_site_adp_type
_atom_site_U_iso_or_equiv
_atom_site_type_symbol
Pt1  1.0  0.4972970158913177  0.4513595528183775  0.5184569600223439  Uiso  ?  Pt
Pt1  1.0  0.4969800957156999  0.4482122387213723  0.4772351359387504  Uiso  ?  Pt
Pt1  1.0  0.4587940420960774  0.4500701510824373  0.4598253003615806  Uiso  ?  Pt
Pt1  1.0  0.4586526062901066  0.45077525395228724  0.5011699543924987  Uiso  ?  Pt
Pt1  1.0  0.5052538115710411  0.48454274676585546  0.4587391988428113  Uiso  ?  Pt
Pt1  1.0  0.5081253745142099  0.4814990230032801  0.4968602297183799  Uiso  ?  Pt
Pt1  1.0  0.47399016553540096  0.48560385144511103  0.5213433484353043  Uiso  ?  Pt
Pt1  1.0  0.46863466406843307  0.48566930497775945  0.4774623641966497  Uiso  ?  Pt
Pt1  1.0  0.4357155559953034  0.4852000186645311  0.5016089077427929  Uiso  ?  Pt
Pt1  1.0  0.5204101079119385  0.5191708622126825  0.5200106060516577  Uiso  ?  Pt
Pt1  1.0  0.5192556336617627  0.5196932668980041  0.4759985220550334  Uiso  ?  Pt
Pt1  1.0  0.4839711385109348  0.5201459437976664  0.49857453499541976  Uiso  ?  Pt
Pt1  1.0  0.4871937712632244  0.5184332481765708  0.5411235663166237  Uiso  ?  Pt
Pt1  1.0  0.4477307698710837  0.517724302476219  0.5229713640749369  Uiso  ?  Pt
Pt1  1.0  0.478810231354489  0.5195726409469079  0.4573848755503102  Uiso  ?  Pt
Pt1  1.0  0.4458016326413832  0.5212066979413564  0.47906751948451937  Uiso  ?  Pt
O1  1.0  0.3906217428004874  0.39764783638290796  0.6651162225921167  Uiso  ?  O
Ce1  1.0  0.3703160618236054  0.37721662116240023  0.604851257681622  Uiso  ?  Ce
Ce1  1.0  0.369188758059844  0.4144668922519239  0.6451581127062549  Uiso  ?  Ce
O1  1.0  0.349980504887099  0.3965517871637652  0.6238285914393107  Uiso  ?  O
O1  1.0  0.3909972011914054  0.3962160853310326  0.6229876001001209  Uiso  ?  O
O1  1.0  0.3481294730577964  0.4411754525777813  0.6249060155176612  Uiso  ?  O
O1  1.0  0.3907149553384911  0.43660226902833404  0.6225605716033974  Uiso  ?  O
O1  1.0  0.3506907542101319  0.3971303457205043  0.5829037994043499  Uiso  ?  O
O1  1.0  0.39135201688902915  0.39643826755890865  0.583373362385965  Uiso  ?  O
O1  1.0  0.3494627576719676  0.4391436804571544  0.5829225260347378  Uiso  ?  O
O1  1.0  0.3913406713756698  0.43877004166742073  0.5843422579889805  Uiso  ?  O
Ce1  1.0  0.36798050484277833  0.37520749040234513  0.5203992114483914  Uiso  ?  Ce
Ce1  1.0  0.3719581922611158  0.4195960259622024  0.5630667781518286  Uiso  ?  Ce
O1  1.0  0.35161988085359197  0.3963686221501415  0.5442528591160812  Uiso  ?  O
O1  1.0  0.39130367386510706  0.3954559452266142  0.5403807756763299  Uiso  ?  O
O1  1.0  0.35002939623849566  0.4367369800419243  0.5406802727134195  Uiso  ?  O
O1  1.0  0.3880064183380681  0.4391699461366346  0.542246839214931  Uiso  ?  O
O1  1.0  0.3492950771123988  0.3952820509116818  0.5040166643684586  Uiso  ?  O
O1  1.0  0.3892180743101477  0.3946298725434515  0.498879806203985  Uiso  ?  O
O1  1.0  0.3489639180389929  0.43759071786656817  0.49697075514297073  Uiso  ?  O
O1  1.0  0.3936490249901745  0.4368270173851466  0.5014713910225246  Uiso  ?  O
Ce1  1.0  0.3694070283296246  0.3758385623937255  0.43972760381334997  Uiso  ?  Ce
Ce1  1.0  0.36905633976989105  0.42057537521998595  0.47890045157889244  Uiso  ?  Ce
O1  1.0  0.34839214767600024  0.39626358130031425  0.45980752366054534  Uiso  ?  O
O1  1.0  0.3921200386867794  0.3976972233556994  0.46126220759296716  Uiso  ?  O
O1  1.0  0.35149186074670274  0.43857000831258197  0.46108926939410205  Uiso  ?  O
O1  1.0  0.3907242180055156  0.43776917072314764  0.4595716272415117  Uiso  ?  O
O1  1.0  0.3485039180248826  0.39641009365369634  0.4189496909371026  Uiso  ?  O
O1  1.0  0.3910630325981251  0.39647352766898986  0.4147323206698671  Uiso  ?  O
O1  1.0  0.34798904797286173  0.4347184732292254  0.4204351173123702  Uiso  ?  O
O1  1.0  0.3898312676181884  0.43787026138216706  0.418032476759587  Uiso  ?  O
Ce1  1.0  0.3712239719095369  0.3744416065074943  0.35778696103922747  Uiso  ?  Ce
Ce1  1.0  0.3680981324467063  0.42020559009615677  0.39753797468579427  Uiso  ?  Ce
O1  1.0  0.34755872909109436  0.40104640202418373  0.3781064388304436  Uiso  ?  O
O1  1.0  0.3898613736353509  0.3989239478178614  0.37814420929756504  Uiso  ?  O
O1  1.0  0.3498282606933836  0.4356931718624178  0.37719040957025346  Uiso  ?  O
O1  1.0  0.3921208687863147  0.4389334117237427  0.3794088506202884  Uiso  ?  O
O1  1.0  0.3483272768416309  0.39699689748211725  0.3365680071267217  Uiso  ?  O
O1  1.0  0.39168625685990255  0.39612953447609883  0.3359212592932903  Uiso  ?  O
O1  1.0  0.3528880742465511  0.43849398876919804  0.33635785721372985  Uiso  ?  O
O1  1.0  0.3937124815211142  0.4375408342011073  0.33682238504714124  Uiso  ?  O
Ce1  1.0  0.3719877151499737  0.376339547246134  0.27518374084874775  Uiso  ?  Ce
Ce1  1.0  0.36963306402954005  0.4169806908230239  0.3162989616773448  Uiso  ?  Ce
O1  1.0  0.3468282801079726  0.3974168027041968  0.2967472208868327  Uiso  ?  O
O1  1.0  0.3918135246247857  0.3979093108304474  0.2944936317724947  Uiso  ?  O
O1  1.0  0.3484930678365918  0.436419249501  0.2957608554728606  Uiso  ?  O
O1  1.0  0.390313101666577  0.43686097856978545  0.29595371506965396  Uiso  ?  O
O1  1.0  0.35278615261849716  0.3958378095734949  0.25501108643095793  Uiso  ?  O
O1  1.0  0.3869464900127956  0.3952738857972898  0.2546698658482179  Uiso  ?  O
O1  1.0  0.39052864527755543  0.4382604505658828  0.25601585297658946  Uiso  ?  O
Ce1  1.0  0.3723262212887444  0.37738953095805794  0.19394759701398903  Uiso  ?  Ce
Ce1  1.0  0.36829336153144154  0.41779526165449205  0.23450226733948834  Uiso  ?  Ce
O1  1.0  0.34877307510273226  0.3967728564510967  0.21336598398037063  Uiso  ?  O
O1  1.0  0.39158795313879363  0.3966232535887033  0.21162009610279017  Uiso  ?  O
O1  1.0  0.4323055940549141  0.3948445342869251  0.6647448504386412  Uiso  ?  O
O1  1.0  0.47080153984104484  0.3968376027594539  0.6658284156065408  Uiso  ?  O
Ce1  1.0  0.4073857170229433  0.37815402412041466  0.644435142790116  Uiso  ?  Ce
Ce1  1.0  0.4095797306732457  0.4188753650865463  0.602642645681393  Uiso  ?  Ce
Ce1  1.0  0.4537721350160748  0.38031810563590757  0.6047412096094523  Uiso  ?  Ce
Ce1  1.0  0.4512327017256677  0.4165386197900391  0.6456493061703424  Uiso  ?  Ce
O1  1.0  0.4308193814108619  0.3973027686496208  0.622206281829076  Uiso  ?  O
O1  1.0  0.4735055221520346  0.3976011547254054  0.6242882135913121  Uiso  ?  O
O1  1.0  0.42858741504971565  0.4349517017928724  0.6220778926625883  Uiso  ?  O
O1  1.0  0.4712967779726671  0.433378906996749  0.6223639298600261  Uiso  ?  O
O1  1.0  0.4286647228329106  0.39659025002462567  0.5825806430599146  Uiso  ?  O
O1  1.0  0.4715147811078269  0.39549892482773813  0.5814965375874163  Uiso  ?  O
O1  1.0  0.4315432429821707  0.4373441537049806  0.5794567446119561  Uiso  ?  O
O1  1.0  0.471713985627613  0.4389544241774823  0.5828478203452898  Uiso  ?  O
Ce1  1.0  0.4119202252437422  0.3742541273878977  0.5589384288563765  Uiso  ?  Ce
Ce1  1.0  0.4077853305249022  0.4175644144049414  0.5214160373542451  Uiso  ?  Ce
Ce1  1.0  0.45440789649523455  0.37785048546263966  0.5196912210572915  Uiso  ?  Ce
Ce1  1.0  0.4499639579465475  0.41596350645421654  0.5644765235381509  Uiso  ?  Ce
O1  1.0  0.4317712447603304  0.39564400821683854  0.5404930847012317  Uiso  ?  O
O1  1.0  0.4740173935164663  0.39595380769612104  0.5415197929189998  Uiso  ?  O
O1  1.0  0.43126786869214495  0.43878734365856686  0.5413777210882805  Uiso  ?  O
O1  1.0  0.47246134735660694  0.43650888752550193  0.5402908265072666  Uiso  ?  O
O1  1.0  0.43017289768172795  0.3961031119369097  0.49947758538227766  Uiso  ?  O
O1  1.0  0.4730430700848636  0.3953584490705744  0.5035413294746799  Uiso  ?  O
O1  1.0  0.4331595440656379  0.4386338525181379  0.5010349538749694  Uiso  ?  O
Ce1  1.0  0.4109384612451096  0.3751066996093637  0.48231531867830635  Uiso  ?  Ce
Ce1  1.0  0.4106016713866938  0.41644900305981003  0.43869995536216416  Uiso  ?  Ce
Ce1  1.0  0.4505685641315853  0.37510149611762184  0.4397054064942276  Uiso  ?  Ce
Ce1  1.0  0.44860022910661546  0.41708848551541927  0.48073866014949035  Uiso  ?  Ce
O1  1.0  0.4314787289008636  0.3980717859303913  0.46124782848504664  Uiso  ?  O
O1  1.0  0.47217232459187447  0.3954546890974819  0.46009649295967325  Uiso  ?  O
O1  1.0  0.4304391229636186  0.4376664578909425  0.45966215195986654  Uiso  ?  O
O1  1.0  0.43060259928379613  0.3959893030369842  0.4194146134360976  Uiso  ?  O
O1  1.0  0.47161307686784787  0.3959788428551994  0.4186547586793152  Uiso  ?  O
O1  1.0  0.4317448674828243  0.43764045402413526  0.41789541317505663  Uiso  ?  O
O1  1.0  0.4715107909418752  0.4381370565046152  0.41949085369224864  Uiso  ?  O
Ce1  1.0  0.41205916993845876  0.3751819197893034  0.39634600896710837  Uiso  ?  Ce
Ce1  1.0  0.4104114442768784  0.41912470228117293  0.3570131536577698  Uiso  ?  Ce
Ce1  1.0  0.4497723423175941  0.37607959891692005  0.35615193778794185  Uiso  ?  Ce
Ce1  1.0  0.45088118418598105  0.4176078807772751  0.3972681636350363  Uiso  ?  Ce
O1  1.0  0.4296615143148579  0.39694470730444303  0.3769541958105707  Uiso  ?  O
O1  1.0  0.471783159212061  0.39809003238716806  0.3767573897518412  Uiso  ?  O
O1  1.0  0.4298003897112536  0.43371793096523614  0.3781255182907263  Uiso  ?  O
O1  1.0  0.4731587031836252  0.4385502868677242  0.3791800361230928  Uiso  ?  O
O1  1.0  0.4332857686729061  0.3962973089655145  0.3371292870008777  Uiso  ?  O
O1  1.0  0.47009437905071255  0.3983581766777082  0.3361516661594058  Uiso  ?  O
O1  1.0  0.4280363034075312  0.4376709262687867  0.33811412387771034  Uiso  ?  O
O1  1.0  0.4726605207200166  0.43834777122194357  0.3350833101041199  Uiso  ?  O
Ce1  1.0  0.40866832394658464  0.37323244409165524  0.315551902015016  Uiso  ?  Ce
Ce1  1.0  0.4099359771628097  0.41816597866404853  0.2731877170109368  Uiso  ?  Ce
Ce1  1.0  0.45258329711356465  0.37527051861597516  0.2747457094175913  Uiso  ?  Ce
Ce1  1.0  0.4509106469687318  0.4184002090170555  0.31886414662604756  Uiso  ?  Ce
O1  1.0  0.43470198209488686  0.3935646332366854  0.29505932906314797  Uiso  ?  O
O1  1.0  0.4711689809712218  0.3972624047714047  0.29523819769612347  Uiso  ?  O
O1  1.0  0.4295055302623855  0.43763255759729136  0.2964806325261848  Uiso  ?  O
O1  1.0  0.4755552854439117  0.4357167333796456  0.2990563061542548  Uiso  ?  O
O1  1.0  0.4321415918546393  0.3943631235615501  0.2552847306150737  Uiso  ?  O
O1  1.0  0.47231447903574686  0.39761338759011794  0.25361040222930514  Uiso  ?  O
O1  1.0  0.4328733545199663  0.43800885505632947  0.2546306831837078  Uiso  ?  O
O1  1.0  0.46954579145571707  0.438444181640899  0.2557515126699212  Uiso  ?  O
Ce1  1.0  0.41084095031619733  0.3745262309347391  0.23285172553059388  Uiso  ?  Ce
Ce1  1.0  0.4130032660444142  0.4175961275157794  0.19707890378902632  Uiso  ?  Ce
Ce1  1.0  0.4483569676099375  0.37469546845982393  0.19229712579590721  Uiso  ?  Ce
Ce1  1.0  0.45066326709092935  0.41781060634223205  0.23492488574543674  Uiso  ?  Ce
O1  1.0  0.4305106423131085  0.3957526415216427  0.21239913552099796  Uiso  ?  O
O1  1.0  0.47293520751984985  0.39559167446782423  0.20849923588822356  Uiso  ?  O
O1  1.0  0.43255942917360024  0.43830355682683303  0.214121461668214  Uiso  ?  O
O1  1.0  0.4729235083143659  0.4377299347221883  0.21322039180569147  Uiso  ?  O
O1  1.0  0.4302196039149952  0.39543617370555406  0.17136750302534334  Uiso  ?  O
O1  1.0  0.47314035138705607  0.3972373285305277  0.17405475783178728  Uiso  ?  O
O1  1.0  0.4739913415700164  0.43602313075923893  0.17360345179765724  Uiso  ?  O
O1  1.0  0.5119867560866246  0.3976613072000532  0.66453331073481  Uiso  ?  O
Ce1  1.0  0.492750176365175  0.37781058821049096  0.6430913367689565  Uiso  ?  Ce
Ce1  1.0  0.49271736526196813  0.4168609068022461  0.6023665382786307  Uiso  ?  Ce
Ce1  1.0  0.5309844193386776  0.37759750115223156  0.6018691495728442  Uiso  ?  Ce
Ce1  1.0  0.5352559334297452  0.41685226020250776  0.6437971843646482  Uiso  ?  Ce
O1  1.0  0.5127575255795718  0.39654302255211527  0.6238441401573265  Uiso  ?  O
O1  1.0  0.5533108418194089  0.39632637845540053  0.627468735451953  Uiso  ?  O
O1  1.0  0.5145040861691983  0.4393304615799564  0.6267408942168892  Uiso  ?  O
O1  1.0  0.5132083140380601  0.3978229593166773  0.582546634955415  Uiso  ?  O
O1  1.0  0.552735141859687  0.3963817740561829  0.5821962586456574  Uiso  ?  O
O1  1.0  0.5139001146167932  0.43970534868379507  0.580499965111375  Uiso  ?  O
O1  1.0  0.5527242507514294  0.4367826923358058  0.5802572599003859  Uiso  ?  O
Ce1  1.0  0.4927542666509158  0.37680457719092286  0.562111576467505  Uiso  ?  Ce
Ce1  1.0  0.49297408430008977  0.41868125898571923  0.518762944509427  Uiso  ?  Ce
Ce1  1.0  0.531165867927796  0.37730346874982057  0.5230512325574155  Uiso  ?  Ce
Ce1  1.0  0.5304482668466226  0.41942914417599736  0.564231877298133  Uiso  ?  Ce
O1  1.0  0.5121257995942897  0.39707125314520036  0.5403364773610216  Uiso  ?  O
O1  1.0  0.5527016859475262  0.3970942584709838  0.5420455542496228  Uiso  ?  O
O1  1.0  0.5124064451768314  0.43757408317596935  0.5424378768231598  Uiso  ?  O
O1  1.0  0.5522794597972748  0.4373977624189876  0.5381976801999774  Uiso  ?  O
O1  1.0  0.5132934623828345  0.396239940798425  0.5014026490451474  Uiso  ?  O
O1  1.0  0.554196564335586  0.39797953134807634  0.5010735450465056  Uiso  ?  O
O1  1.0  0.5536406564396679  0.43860707331900145  0.498503413457316  Uiso  ?  O
Ce1  1.0  0.4939979121530461  0.3798700817083681  0.4783971892755011  Uiso  ?  Ce
Ce1  1.0  0.4913823696800375  0.4173044926241463  0.4390886987401879  Uiso  ?  Ce
Ce1  1.0  0.5364551540690177  0.37751267596649307  0.4407454994123748  Uiso  ?  Ce
Ce1  1.0  0.5317230985763266  0.41846176251233064  0.4785226397967418  Uiso  ?  Ce
O1  1.0  0.5131896748727109  0.39823867719267364  0.4581583678127733  Uiso  ?  O
O1  1.0  0.5529320733737263  0.3993187179058053  0.45953353801912783  Uiso  ?  O
O1  1.0  0.5540211767101978  0.43872798091669724  0.4585920009659114  Uiso  ?  O
O1  1.0  0.5141301221050387  0.39742994597144404  0.41897044739408024  Uiso  ?  O
O1  1.0  0.5541777776377027  0.3957306343159197  0.41756839168330273  Uiso  ?  O
O1  1.0  0.5142706961308104  0.4377631523035015  0.4187353349813728  Uiso  ?  O
O1  1.0  0.54998812001955  0.43910784702715716  0.4183303244472066  Uiso  ?  O
Ce1  1.0  0.49135717039942084  0.37456668121562336  0.39966561236390136  Uiso  ?  Ce
Ce1  1.0  0.4933877476363885  0.4172524853685961  0.35836740693088076  Uiso  ?  Ce
Ce1  1.0  0.530597994947169  0.3745966616929358  0.35314109922942666  Uiso  ?  Ce
Ce1  1.0  0.5341402455032729  0.41645721328083324  0.3981135856733325  Uiso  ?  Ce
O1  1.0  0.5129352349381151  0.39580086511807033  0.37651468083870565  Uiso  ?  O
O1  1.0  0.5520256630480054  0.39798179384549176  0.37798681921377164  Uiso  ?  O
O1  1.0  0.5101946676918564  0.4396366633838211  0.37840307627434167  Uiso  ?  O
O1  1.0  0.5558565058597703  0.4377990569180763  0.3753474665441538  Uiso  ?  O
O1  1.0  0.5137322838545921  0.397118164235446  0.33672355758104794  Uiso  ?  O
O1  1.0  0.5524082265062993  0.4001511478967821  0.33545414605980456  Uiso  ?  O
O1  1.0  0.5120367826186203  0.43730603606791485  0.3344386427039078  Uiso  ?  O
O1  1.0  0.5557746206919147  0.43851202434347974  0.3360929729140148  Uiso  ?  O
Ce1  1.0  0.4948325171484419  0.37555931087240885  0.3156881772101691  Uiso  ?  Ce
Ce1  1.0  0.4931343016781655  0.4207922958559671  0.27644878881887713  Uiso  ?  Ce
Ce1  1.0  0.5311162092932988  0.3770504049454543  0.27485406642235366  Uiso  ?  Ce
Ce1  1.0  0.5331607181077813  0.41729052812190665  0.3170883091002433  Uiso  ?  Ce
O1  1.0  0.5116472248480528  0.39565318552645384  0.294667764709498  Uiso  ?  O
O1  1.0  0.5538257055434369  0.3956539325121371  0.2958579667482164  Uiso  ?  O
O1  1.0  0.5112338491406913  0.4395801242948705  0.2965154270215551  Uiso  ?  O
O1  1.0  0.5542998313636633  0.43787847694106447  0.2979591953706172  Uiso  ?  O
O1  1.0  0.5107211626454643  0.39709535829046705  0.2529018124415124  Uiso  ?  O
O1  1.0  0.5553288498535678  0.39511752757840657  0.25423970879608576  Uiso  ?  O
O1  1.0  0.5164497611019436  0.4391263760069513  0.25495810716096406  Uiso  ?  O
O1  1.0  0.5539821981479557  0.43938443520356363  0.25391087925627315  Uiso  ?  O
Ce1  1.0  0.49120314856199104  0.37649500466382974  0.23605315040701358  Uiso  ?  Ce
Ce1  1.0  0.49394310716333895  0.4160132096766138  0.19471227235210614  Uiso  ?  Ce
Ce1  1.0  0.5350972613580759  0.3779886887814739  0.19049320955380844  Uiso  ?  Ce
Ce1  1.0  0.5312588592619414  0.41795000615073113  0.23504678835164408  Uiso  ?  Ce
O1  1.0  0.5106378329529268  0.39649983799377836  0.21514847506283716  Uiso  ?  O
O1  1.0  0.5548665543400102  0.39942015382385715  0.21284525157257775  Uiso  ?  O
O1  1.0  0.5154406394418535  0.4366121808071759  0.2135657292492987  Uiso  ?  O
O1  1.0  0.5542311835764719  0.43857097337831136  0.21284146757937325  Uiso  ?  O
O1  1.0  0.5088535845565718  0.3958748473896721  0.1704518271353798  Uiso  ?  O
O1  1.0  0.5554479946156409  0.3985966440698279  0.17331959783085843  Uiso  ?  O
O1  1.0  0.5135341194954854  0.437021924100711  0.17234901835969668  Uiso  ?  O
O1  1.0  0.5531039837881654  0.438681980401582  0.17283980489711176  Uiso  ?  O
Ce1  1.0  0.4905051756513518  0.37602682060534204  0.15429824308210424  Uiso  ?  Ce
Ce1  1.0  0.5333221448948027  0.41638906706249396  0.1536817992898491  Uiso  ?  Ce
Ce1  1.0  0.5734511001100298  0.3766039440489337  0.6402515189875033  Uiso  ?  Ce
Ce1  1.0  0.5735600487750728  0.4167574988953249  0.6036246935569554  Uiso  ?  Ce
Ce1  1.0  0.6151249694288962  0.3766136754134976  0.6016255033500025  Uiso  ?  Ce
O1  1.0  0.5978717400229213  0.3964346129030977  0.6228400419880837  Uiso  ?  O
O1  1.0  0.5955976733153245  0.3957170739899082  0.582423732359921  Uiso  ?  O
O1  1.0  0.635172191265747  0.3955411137877215  0.5816258998888416  Uiso  ?  O
Ce1  1.0  0.5724901054388974  0.3768053665501116  0.5639444502919462  Uiso  ?  Ce
Ce1  1.0  0.5744586799954592  0.41648816786206844  0.5200610556674402  Uiso  ?  Ce
Ce1  1.0  0.6157776678774445  0.37592488803242297  0.5231958414748656  Uiso  ?  Ce
Ce1  1.0  0.6155555144676627  0.4149565542226239  0.561905593720865  Uiso  ?  Ce
O1  1.0  0.5958632478788622  0.3959263026368246  0.5435501496309916  Uiso  ?  O
O1  1.0  0.6369289292846559  0.39881608961419285  0.541598805299306  Uiso  ?  O
O1  1.0  0.5945189463945029  0.43819769251629187  0.5415313481343241  Uiso  ?  O
O1  1.0  0.5954637978918063  0.3989689229244175  0.5012914752596613  Uiso  ?  O
O1  1.0  0.6374086766638811  0.3956366699204785  0.5012384122654054  Uiso  ?  O
O1  1.0  0.594924423869795  0.43515851940142664  0.5018430074660692  Uiso  ?  O
O1  1.0  0.6355462114419431  0.4381519723663375  0.49778764307604173  Uiso  ?  O
Ce1  1.0  0.5747170470697774  0.3727597968800297  0.48019142026928674  Uiso  ?  Ce
Ce1  1.0  0.5738377149656207  0.4184850482155479  0.44114317965673755  Uiso  ?  Ce
Ce1  1.0  0.6154321051401285  0.37720877991620794  0.4393349974748537  Uiso  ?  Ce
Ce1  1.0  0.615337728351853  0.41782520117195276  0.478812021595277  Uiso  ?  Ce
O1  1.0  0.593863436246229  0.39709449481044523  0.4595232379906901  Uiso  ?  O
O1  1.0  0.6354011538978498  0.3990343375644131  0.4563446331633871  Uiso  ?  O
O1  1.0  0.5938689203252262  0.438325300665309  0.4592216803577667  Uiso  ?  O
O1  1.0  0.6373071017980343  0.43925534402872873  0.45865461947018366  Uiso  ?  O
O1  1.0  0.5949840065585236  0.3986339690182723  0.41965549989943496  Uiso  ?  O
O1  1.0  0.6358420276143211  0.3957921539970565  0.4168662464170455  Uiso  ?  O
O1  1.0  0.594056550407207  0.44056591775446896  0.41798533700722  Uiso  ?  O
O1  1.0  0.6375055650673493  0.4386455831551915  0.42218407549565434  Uiso  ?  O
Ce1  1.0  0.574237341892401  0.3768639830499549  0.3983204944261503  Uiso  ?  Ce
Ce1  1.0  0.5749543157857113  0.419089274204624  0.3597918303258847  Uiso  ?  Ce
Ce1  1.0  0.616621268142833  0.3723532636051844  0.35612594176278145  Uiso  ?  Ce
Ce1  1.0  0.6152257619506433  0.41862446033429174  0.3958496166206368  Uiso  ?  Ce
O1  1.0  0.5954905833915839  0.39407205941424533  0.3775208771255104  Uiso  ?  O
O1  1.0  0.6371552989884679  0.39392241527524957  0.37925974597491835  Uiso  ?  O
O1  1.0  0.5957999610385596  0.4368959474504971  0.3770393466318581  Uiso  ?  O
O1  1.0  0.6384007026110325  0.43836577773759117  0.38011987718640633  Uiso  ?  O
O1  1.0  0.5987708553836174  0.39775171841076634  0.33690636877718017  Uiso  ?  O
O1  1.0  0.6372367401163391  0.3963837528231934  0.3364788817426415  Uiso  ?  O
O1  1.0  0.5936871088108312  0.43800300693637406  0.3356868119154544  Uiso  ?  O
O1  1.0  0.6343926836011834  0.4367500888749385  0.33651415091739284  Uiso  ?  O
Ce1  1.0  0.5763925385132251  0.3752484576283154  0.31733287907401664  Uiso  ?  Ce
Ce1  1.0  0.5764023630512973  0.416705501922395  0.2744682103092057  Uiso  ?  Ce
Ce1  1.0  0.6178534068173669  0.3767677624382952  0.27364597083296555  Uiso  ?  Ce
Ce1  1.0  0.6143424512657526  0.4178566192208705  0.3167763362015654  Uiso  ?  Ce
O1  1.0  0.5950896103703702  0.3968083196809126  0.29477765694876684  Uiso  ?  O
O1  1.0  0.6376770042634988  0.39730961242425783  0.29817136733788224  Uiso  ?  O
O1  1.0  0.5927897250825467  0.43913565091764123  0.2932541851421121  Uiso  ?  O
O1  1.0  0.6366616513000539  0.4385479850326293  0.2959286558388285  Uiso  ?  O
O1  1.0  0.595327019369522  0.3976158351169332  0.25309914052978294  Uiso  ?  O
O1  1.0  0.6345296248862483  0.3961245824409321  0.2551800485705286  Uiso  ?  O
O1  1.0  0.5927221199172781  0.4377919369260216  0.2528349511020307  Uiso  ?  O
O1  1.0  0.6347627270240582  0.4379381541696793  0.2554829273596276  Uiso  ?  O
Ce1  1.0  0.5766325768846619  0.3779390936311389  0.2369186675063966  Uiso  ?  Ce
Ce1  1.0  0.5730034185504401  0.4163384480093991  0.195373853479484  Uiso  ?  Ce
Ce1  1.0  0.6140155918962114  0.3752382203571293  0.19274553511888493  Uiso  ?  Ce
Ce1  1.0  0.6149514125579926  0.4179161822563825  0.23588824280407  Uiso  ?  Ce
O1  1.0  0.594579944665594  0.3961652931692629  0.21392426291077676  Uiso  ?  O
O1  1.0  0.6334984548554089  0.39643904927176316  0.21461386108931327  Uiso  ?  O
O1  1.0  0.5928045020134244  0.4376312273739183  0.21544804414075513  Uiso  ?  O
O1  1.0  0.6363020089392079  0.4361355852832327  0.2141661368685665  Uiso  ?  O
O1  1.0  0.5967146625899462  0.3973757243266997  0.17364832208516887  Uiso  ?  O
O1  1.0  0.6351302294805453  0.40088392491656416  0.17432279974763454  Uiso  ?  O
O1  1.0  0.5951979951210398  0.43682044781308327  0.17339337062620427  Uiso  ?  O
O1  1.0  0.6368224743521799  0.4385614075759726  0.1760799101487874  Uiso  ?  O
Ce1  1.0  0.5735330121623077  0.375777396300453  0.1530430804067674  Uiso  ?  Ce
Ce1  1.0  0.615011359055459  0.42044149745877274  0.15148373057631154  Uiso  ?  Ce
Ce1  1.0  0.6569890350222397  0.37572624795382403  0.5601798774959068  Uiso  ?  Ce
Ce1  1.0  0.6546564477875861  0.4180659778331402  0.5198719175173141  Uiso  ?  Ce
Ce1  1.0  0.6565780651704375  0.3784481495751484  0.48139051512094083  Uiso  ?  Ce
Ce1  1.0  0.6561332511452113  0.4169581069975745  0.44039321705102985  Uiso  ?  Ce
Ce1  1.0  0.6558148968443595  0.3753445268689764  0.395342519124918  Uiso  ?  Ce
Ce1  1.0  0.6551534534496004  0.41588493470796145  0.35482346543913856  Uiso  ?  Ce
Ce1  1.0  0.6530959295557155  0.378005725165322  0.31543598707070736  Uiso  ?  Ce
Ce1  1.0  0.6558516524208615  0.4188635712309737  0.27559464101114434  Uiso  ?  Ce
Ce1  1.0  0.6578755803919408  0.37660995697187244  0.2343994864422671  Uiso  ?  Ce
Ce1  1.0  0.6543034787860201  0.4197238727658053  0.19377785877133435  Uiso  ?  Ce
Ce1  1.0  0.6568767574679409  0.3761826626579266  0.15191918548455388  Uiso  ?  Ce
O1  1.0  0.3471267637967052  0.35495433030047463  0.7067279093099134  Uiso  ?  O
O1  1.0  0.3886494212184594  0.35683435185122786  0.7033879108554797  Uiso  ?  O
O1  1.0  0.3480918295716164  0.35640871230671145  0.6670617626942251  Uiso  ?  O
O1  1.0  0.3892477442354071  0.3563548205592282  0.6635095231341316  Uiso  ?  O
O1  1.0  0.3444316352933256  0.35580545581271156  0.6213149767957079  Uiso  ?  O
O1  1.0  0.3894102895747215  0.35819864278804836  0.6232077199566218  Uiso  ?  O
O1  1.0  0.34996041118817883  0.3562444902633907  0.5835687060815841  Uiso  ?  O
O1  1.0  0.3914384020673109  0.3531841445246422  0.5811313380178686  Uiso  ?  O
O1  1.0  0.34955121674364165  0.3557930616815926  0.5396804346657296  Uiso  ?  O
O1  1.0  0.389464981383042  0.35615474434178007  0.5437880789642797  Uiso  ?  O
O1  1.0  0.3506100784466641  0.35676813396758217  0.502522279882971  Uiso  ?  O
O1  1.0  0.3895432570288914  0.35879866053118215  0.5031878707507864  Uiso  ?  O
O1  1.0  0.34785262813315154  0.3548116517339699  0.46219947989253196  Uiso  ?  O
O1  1.0  0.3917032507665975  0.3575866993666832  0.4593681259421231  Uiso  ?  O
O1  1.0  0.35109322436239543  0.35487736010070964  0.4206516956877662  Uiso  ?  O
O1  1.0  0.38897679884827396  0.35348971734855567  0.41841681681104753  Uiso  ?  O
O1  1.0  0.3479798862377716  0.3554087208600658  0.38014540756194776  Uiso  ?  O
O1  1.0  0.3907531154019844  0.35633193719639794  0.3787621690800866  Uiso  ?  O
O1  1.0  0.34768301476189495  0.35306715861976423  0.33546157742917754  Uiso  ?  O
O1  1.0  0.3883768265801042  0.35674265522430293  0.3362424734265315  Uiso  ?  O
O1  1.0  0.3516158106390686  0.35634323473630913  0.2973628179856175  Uiso  ?  O
O1  1.0  0.3876126136850123  0.35650569298605245  0.2960245819882068  Uiso  ?  O
O1  1.0  0.349164773690666  0.3565595709465878  0.25609045722184076  Uiso  ?  O
O1  1.0  0.39107958743922655  0.35473277426815836  0.25707168109259465  Uiso  ?  O
O1  1.0  0.3477801760838881  0.3552140415715539  0.21381493121356113  Uiso  ?  O
O1  1.0  0.3884877193128479  0.3576727245918232  0.21519179048075104  Uiso  ?  O
O1  1.0  0.34881265072328993  0.3559204816093612  0.1730970164240618  Uiso  ?  O
O1  1.0  0.38817874585447365  0.35547961647272297  0.17411371130392359  Uiso  ?  O
O1  1.0  0.43071839638637743  0.3549575136730141  0.7059222216482198  Uiso  ?  O
O1  1.0  0.4706601971099957  0.3575247250081878  0.7069383659161366  Uiso  ?  O
O1  1.0  0.43226079650904015  0.3548705989074793  0.6647103588064407  Uiso  ?  O
O1  1.0  0.47120977992369983  0.3558626122729458  0.6668267419781968  Uiso  ?  O
O1  1.0  0.4302723948210231  0.35523954177474176  0.624361240766581  Uiso  ?  O
O1  1.0  0.47134523552994806  0.3541743975966547  0.621321532855539  Uiso  ?  O
O1  1.0  0.4308279373596749  0.35568778271046797  0.5808836777754184  Uiso  ?  O
O1  1.0  0.46807032259510606  0.35745883479808693  0.5833270570535505  Uiso  ?  O
O1  1.0  0.4300659981327189  0.3577816645073697  0.5414078860578483  Uiso  ?  O
O1  1.0  0.4718338433406288  0.3577452736826787  0.5409492981864525  Uiso  ?  O
O1  1.0  0.4307675700249673  0.35497171387589  0.5003629945553472  Uiso  ?  O
O1  1.0  0.4713808954703158  0.3565308319167159  0.5017053850953566  Uiso  ?  O
Ce1  1.0  0.41108262399283474  0.33784429561250195  0.43724568815391923  Uiso  ?  Ce
O1  1.0  0.4294530986445768  0.3524917163621075  0.46037715402908325  Uiso  ?  O
O1  1.0  0.4725155666601962  0.35606467145393605  0.4592458740302624  Uiso  ?  O
O1  1.0  0.43217060759468495  0.35703288176667064  0.41947708749380486  Uiso  ?  O
O1  1.0  0.47008511336130776  0.3563496353035928  0.4168469437269339  Uiso  ?  O
O1  1.0  0.4296088890658716  0.35567992006205695  0.37786727104621015  Uiso  ?  O
O1  1.0  0.47235088913323114  0.3546657204629479  0.37761786504665873  Uiso  ?  O
O1  1.0  0.4297284444262091  0.3544888439975053  0.33693540726197563  Uiso  ?  O
O1  1.0  0.4711948619143409  0.3541055461826365  0.33443061558491144  Uiso  ?  O
O1  1.0  0.43129256225095014  0.3559897174784438  0.2973864435753632  Uiso  ?  O
O1  1.0  0.4725361067978125  0.3579058642691878  0.29370727633156524  Uiso  ?  O
O1  1.0  0.4300214279209245  0.35498973980798454  0.2538038682438301  Uiso  ?  O
O1  1.0  0.4712867975705905  0.35458616837516566  0.2557412673385673  Uiso  ?  O
Ce1  1.0  0.45188761932398736  0.3399751437725016  0.23594813974481402  Uiso  ?  Ce
O1  1.0  0.42877579830187146  0.35486622806004636  0.21634108288227769  Uiso  ?  O
O1  1.0  0.47243531266032146  0.3553198878732224  0.2134659072562718  Uiso  ?  O
O1  1.0  0.429036784675956  0.35926602596226404  0.17370439572371832  Uiso  ?  O
O1  1.0  0.4678122789341236  0.355878872645961  0.17164201902526474  Uiso  ?  O
Ce1  1.0  0.49327526125941396  0.33899631872579605  0.7660567304228751  Uiso  ?  Ce
O1  1.0  0.5120015775277258  0.3559217295522733  0.7064150469657923  Uiso  ?  O
O1  1.0  0.5538274469561341  0.3566675682179746  0.7041637572332193  Uiso  ?  O
O1  1.0  0.5148302426486331  0.3581523027733702  0.6664054479776788  Uiso  ?  O
O1  1.0  0.5505116116665378  0.3552384729498965  0.6649271029256981  Uiso  ?  O
O1  1.0  0.5122442763051755  0.35378373924997225  0.6210258053992813  Uiso  ?  O
O1  1.0  0.5535529031497033  0.35562147463233806  0.6249151430953647  Uiso  ?  O
O1  1.0  0.51269892844753  0.35523426383329154  0.5825357148628619  Uiso  ?  O
O1  1.0  0.5530276943963112  0.3571689889192502  0.5853278571096867  Uiso  ?  O
O1  1.0  0.5120475986518727  0.3600242302996799  0.5442343098600545  Uiso  ?  O
O1  1.0  0.552564417567978  0.35543658655947574  0.5391689311458505  Uiso  ?  O
O1  1.0  0.5110478540119615  0.35363853456684696  0.5004074713207554  Uiso  ?  O
O1  1.0  0.5567301813107682  0.35578231640011787  0.5015874678914006  Uiso  ?  O
O1  1.0  0.5152907062735878  0.3562307304310283  0.4599725451406161  Uiso  ?  O
O1  1.0  0.5510476119986966  0.3560129445423754  0.4579469037575555  Uiso  ?  O
O1  1.0  0.5159589952122952  0.35614444628670827  0.41672480256541455  Uiso  ?  O
O1  1.0  0.5523147405593526  0.35680143210470217  0.4199829213169017  Uiso  ?  O
Ce1  1.0  0.5316268109691737  0.3391855274787921  0.3968442746705795  Uiso  ?  Ce
O1  1.0  0.5130914308052611  0.35551535272924906  0.38077495449062465  Uiso  ?  O
O1  1.0  0.5563626699659191  0.3568304012561248  0.37660730488349514  Uiso  ?  O
O1  1.0  0.5132339120804534  0.3547131191457289  0.3376519740583892  Uiso  ?  O
O1  1.0  0.5543389921238288  0.35589130557417153  0.33566137293842796  Uiso  ?  O
O1  1.0  0.5129257125495024  0.35704960633033433  0.2974087639937756  Uiso  ?  O
O1  1.0  0.5566296655812376  0.3583257718382911  0.29564811282376274  Uiso  ?  O
O1  1.0  0.5133572573766023  0.3574223763384778  0.2525336199847117  Uiso  ?  O
O1  1.0  0.5551338475849135  0.35644105999297326  0.25297616247596544  Uiso  ?  O
O1  1.0  0.5117441820984476  0.355729337706957  0.21276987180154033  Uiso  ?  O
O1  1.0  0.5523872181465751  0.3565982971829179  0.21443582731178548  Uiso  ?  O
O1  1.0  0.512213752086369  0.3562632064556689  0.1730424140101912  Uiso  ?  O
O1  1.0  0.5533740808818873  0.3561549586808405  0.17446237982199103  Uiso  ?  O
O1  1.0  0.5935889929411705  0.3537861064195809  0.6646391972273875  Uiso  ?  O
O1  1.0  0.6362877695952011  0.3547015205936488  0.6665019394343993  Uiso  ?  O
O1  1.0  0.5932420831931244  0.35527848007611906  0.6225883604582501  Uiso  ?  O
O1  1.0  0.6342671956016409  0.3562066358781986  0.6242714690493116  Uiso  ?  O
O1  1.0  0.5938431761628091  0.35539482281757107  0.5865812598233963  Uiso  ?  O
O1  1.0  0.635362047181461  0.354355818818026  0.5822613056244446  Uiso  ?  O
Ce1  1.0  0.615816340428254  0.3377685669486425  0.5602166554741089  Uiso  ?  Ce
O1  1.0  0.5949863170830431  0.356698450684891  0.5415341643976951  Uiso  ?  O
O1  1.0  0.6374068367025055  0.3539817777657951  0.5429045172480997  Uiso  ?  O
O1  1.0  0.596644000620052  0.35559501272834915  0.4999762386470042  Uiso  ?  O
O1  1.0  0.63575686198283  0.3532159181711693  0.5015155205763415  Uiso  ?  O
O1  1.0  0.595080896720983  0.3586020698695777  0.45975570509688996  Uiso  ?  O
O1  1.0  0.6322287098730448  0.3563437566401081  0.4614764960170062  Uiso  ?  O
O1  1.0  0.5933847770955668  0.3546910320667623  0.41552292571902816  Uiso  ?  O
O1  1.0  0.6369223803292382  0.3549919553314754  0.41776796889724  Uiso  ?  O
O1  1.0  0.5962379563413611  0.3528911103807343  0.379696795714342  Uiso  ?  O
O1  1.0  0.6336309025427967  0.356152182518478  0.380014732527778  Uiso  ?  O
O1  1.0  0.596309863313675  0.352990120620422  0.33568612129481745  Uiso  ?  O
O1  1.0  0.6364212655268121  0.3544090656140176  0.33613833636181756  Uiso  ?  O
O1  1.0  0.5931075075137149  0.35668906840670694  0.297805677163226  Uiso  ?  O
O1  1.0  0.6372686861684365  0.3594367165115793  0.29649038221553436  Uiso  ?  O
O1  1.0  0.594123137089094  0.3536301131596604  0.25676836099380257  Uiso  ?  O
O1  1.0  0.6353947840167811  0.35515428794063636  0.2570796482699028  Uiso  ?  O
O1  1.0  0.5952635784281661  0.3541515406577048  0.21440893579287093  Uiso  ?  O
O1  1.0  0.6352732902037489  0.35525263479765484  0.21185008645923953  Uiso  ?  O
O1  1.0  0.5946823628956395  0.355642434809192  0.17376505209255466  Uiso  ?  O
O1  1.0  0.6356549067625072  0.35540688337179904  0.1733287165167783  Uiso  ?  O
Ce1  1.0  0.5337026797800493  0.4574989186606396  0.603233296829958  Uiso  ?  Ce
O1  1.0  0.5137266992504964  0.479922494142488  0.5836218318802999  Uiso  ?  O
Ce1  1.0  0.5342380341965376  0.4587698490465005  0.5181787773351333  Uiso  ?  Ce
O1  1.0  0.5129539814850461  0.47777543630571573  0.5418279196305014  Uiso  ?  O
O1  1.0  0.554742267254762  0.4787754170677731  0.5421938586797371  Uiso  ?  O
O1  1.0  0.5529078729599787  0.4773241130047505  0.5039299419858647  Uiso  ?  O
Ce1  1.0  0.535854754681838  0.49840482920521545  0.4813801957577741  Uiso  ?  Ce
O1  1.0  0.5546103668694091  0.47946029079816044  0.45996294263634363  Uiso  ?  O
O1  1.0  0.5528256684266268  0.48034340333879805  0.4201671404102666  Uiso  ?  O
O1  1.0  0.5526498497226036  0.47991640851740414  0.3763455878970091  Uiso  ?  O
Ce1  1.0  0.5759057227177827  0.4571945755377357  0.5621964749719822  Uiso  ?  Ce
Ce1  1.0  0.5752651745744609  0.4589785425791381  0.4796987867303006  Uiso  ?  Ce
Ce1  1.0  0.5726010744640702  0.49960366061572614  0.4381330601800561  Uiso  ?  Ce
Ce1  1.0  0.6148423871807596  0.45825663067374234  0.4384855812443179  Uiso  ?  Ce
O1  1.0  0.5935036703446214  0.4778609192273394  0.45843160123206866  Uiso  ?  O
O1  1.0  0.5938898620632529  0.47884081479963336  0.41922400459719117  Uiso  ?  O
Ce1  1.0  0.575843542293214  0.4572793509483493  0.39949596042904584  Uiso  ?  Ce
Ce1  1.0  0.6156641423467688  0.46021369525036127  0.356202692236895  Uiso  ?  Ce
O1  1.0  0.5945845138591308  0.48046255602353455  0.3788045564072051  Uiso  ?  O
O1  1.0  0.5960629811156497  0.47935589219770197  0.3377309220743155  Uiso  ?  O
Ce1  1.0  0.5762034389523994  0.46187304441057175  0.31546045647872517  Uiso  ?  Ce
Ce1  1.0  0.6135086776057763  0.4598530258478979  0.27263331381377687  Uiso  ?  Ce
O1  1.0  0.596903746149658  0.4788910471546815  0.29485558709209153  Uiso  ?  O
Ce1  1.0  0.6136489752351514  0.4575051521721646  0.1945140166009996  Uiso  ?  Ce
Ce1  1.0  0.6564351073934604  0.4587001628272211  0.31686078342530066  Uiso  ?  Ce
Ce1  1.0  0.6612485433738267  0.460361933661075  0.23293701451799792  Uiso  ?  Ce
