data_global
_audit_creation_method 'Generated by Python Script'

_symmetry_space_group_name_H-M 'P 1'
_symmetry_Int_Tables_number 1
_symmetry_cell_setting triclinic
loop_
_symmetry_equiv_pos_as_xyz
  'x, y, z'

_cell_length_a    69.57170295774483
_cell_length_b    69.57170295774483
_cell_length_c    69.57170295774483
_cell_angle_alpha 90.0
_cell_angle_beta  90.0
_cell_angle_gamma 90.0

loop_
_atom_site_label
_atom_site_occupancy
_atom_site_fract_x
_atom_site_fract_y
_atom_site_fract_z
_atom_site_adp_type
_atom_site_U_iso_or_equiv
_atom_site_type_symbol
Pt1  1.0  0.5309462366041813  0.494120320420126  0.5603297055846143  Uiso  ?  Pt
Pt1  1.0  0.49915932853240724  0.4948934502458788  0.5791382576523244  Uiso  ?  Pt
Pt1  1.0  0.4641112369390007  0.4949592717445758  0.6010825051044052  Uiso  ?  Pt
Pt1  1.0  0.5334104945879199  0.4952305474688615  0.5209095622274867  Uiso  ?  Pt
Pt1  1.0  0.5326245024661392  0.4974354445955607  0.4804263867908179  Uiso  ?  Pt
Pt1  1.0  0.4978645234684724  0.4948451510531508  0.4987333408420696  Uiso  ?  Pt
Pt1  1.0  0.4969142297590995  0.4942791433247492  0.5417165857022408  Uiso  ?  Pt
Pt1  1.0  0.4641860584785767  0.4944800345183982  0.5577313957835026  Uiso  ?  Pt
Pt1  1.0  0.46360511102260127  0.4963643718628933  0.5193985788931684  Uiso  ?  Pt
Pt1  1.0  0.42946156833999855  0.496317620356161  0.5398661129251306  Uiso  ?  Pt
Pt1  1.0  0.42879618079577164  0.49749201530036047  0.5792184117277078  Uiso  ?  Pt
Pt1  1.0  0.3937029778817235  0.49693901673595486  0.6007407408869246  Uiso  ?  Pt
Pt1  1.0  0.39540473801678927  0.4953208434116265  0.5607456369435844  Uiso  ?  Pt
Pt1  1.0  0.3602608960934057  0.49681759248488144  0.5807862997509399  Uiso  ?  Pt
Pt1  1.0  0.5355658171158978  0.49387023714099726  0.4403231170389722  Uiso  ?  Pt
Pt1  1.0  0.5000691971202758  0.49675068739137485  0.4173798975302401  Uiso  ?  Pt
Pt1  1.0  0.5009514560878578  0.4948869983963472  0.4606250881773278  Uiso  ?  Pt
Pt1  1.0  0.4615307685223405  0.49567550732643856  0.4805379506297127  Uiso  ?  Pt
Pt1  1.0  0.46321892896127376  0.49731217010283907  0.4418858206725712  Uiso  ?  Pt
Pt1  1.0  0.4278323313381024  0.49455076129549036  0.4598949464574552  Uiso  ?  Pt
Pt1  1.0  0.4293510222440493  0.49506884033926374  0.49578594597764586  Uiso  ?  Pt
Pt1  1.0  0.39356255002481194  0.4972481570107049  0.518525473645798  Uiso  ?  Pt
Pt1  1.0  0.3948373816375802  0.49785698909664006  0.47944678478679476  Uiso  ?  Pt
Pt1  1.0  0.35790369439571446  0.49596662486079157  0.49741732854783505  Uiso  ?  Pt
Pt1  1.0  0.36137309012694513  0.4967277885708804  0.5395505236725994  Uiso  ?  Pt
Pt1  1.0  0.42994800278257095  0.4957045544396877  0.41785366250516454  Uiso  ?  Pt
Pt1  1.0  0.392047009836475  0.4969036881154634  0.4406946792591337  Uiso  ?  Pt
Pt1  1.0  0.36038296234177797  0.49593127960225025  0.4202982990517648  Uiso  ?  Pt
Pt1  1.0  0.36327269485869873  0.4946873765948154  0.4609991344799773  Uiso  ?  Pt
O1  1.0  0.47296628757821135  0.45508089190441786  0.1758239133087408  Uiso  ?  O
O1  1.0  0.37619539125437806  0.45400977958471184  0.23098547470699882  Uiso  ?  O
O1  1.0  0.42286315168638355  0.45431470982878874  0.20269765845083934  Uiso  ?  O
O1  1.0  0.4325756489475583  0.4401979334784958  0.17089343356731007  Uiso  ?  O
O1  1.0  0.3859175080967008  0.4379895814366827  0.19685031253827023  Uiso  ?  O
O1  1.0  0.39814817852994766  0.42638245227967037  0.16511943382478275  Uiso  ?  O
O1  1.0  0.279256568153265  0.4529085681834358  0.28581674013505703  Uiso  ?  O
O1  1.0  0.3265159260155614  0.4546983183275789  0.2582620446166021  Uiso  ?  O
O1  1.0  0.3396407759197377  0.4379983885861619  0.22666156637754478  Uiso  ?  O
O1  1.0  0.2899190682340429  0.4404117747288996  0.2513163036976008  Uiso  ?  O
O1  1.0  0.2938449952552796  0.4604320052748205  0.20305177414862763  Uiso  ?  O
O1  1.0  0.3042765773051824  0.4269183019349722  0.2191117753182091  Uiso  ?  O
Ce1  1.0  0.32407485314673734  0.4426714589207073  0.19591255428540463  Uiso  ?  Ce
Ce1  1.0  0.37130164978938285  0.441514426638873  0.1667855721569632  Uiso  ?  Ce
O1  1.0  0.336933905687058  0.45876385926231933  0.17304355032343247  Uiso  ?  O
O1  1.0  0.35303922922704273  0.42415557140927307  0.19148262390039747  Uiso  ?  O
O1  1.0  0.36379914435801736  0.4117472126209078  0.15433924928066922  Uiso  ?  O
O1  1.0  0.30604962208102876  0.4417794394750553  0.16652400750818908  Uiso  ?  O
O1  1.0  0.31603764829576614  0.41133550711496586  0.18113394900437474  Uiso  ?  O
O1  1.0  0.23304100208401282  0.45399298438573316  0.31386408330095555  Uiso  ?  O
O1  1.0  0.2452406659472295  0.44070487633552474  0.2806271907432575  Uiso  ?  O
O1  1.0  0.21034566217815637  0.42284365980340843  0.27243401722107513  Uiso  ?  O
Ce1  1.0  0.23017130723756124  0.43933996887343424  0.25414005806462797  Uiso  ?  Ce
Ce1  1.0  0.2746409980902799  0.4411802255896537  0.22359855350332672  Uiso  ?  Ce
O1  1.0  0.2568149820691688  0.4219114515854907  0.24412658419182182  Uiso  ?  O
O1  1.0  0.2684666376646791  0.4059175854473223  0.21179856511671144  Uiso  ?  O
O1  1.0  0.22268898747041424  0.4075099987129444  0.2384858813405955  Uiso  ?  O
O1  1.0  0.2319333109408885  0.3951281833120288  0.2046803025560545  Uiso  ?  O
Ce1  1.0  0.29834819188319783  0.41129791903159807  0.15546522230841894  Uiso  ?  Ce
O1  1.0  0.2826396989352796  0.3958791826026158  0.17657239856532286  Uiso  ?  O
O1  1.0  0.7311964445535956  0.4512657240589611  0.1821004667392752  Uiso  ?  O
O1  1.0  0.6331978179960844  0.45073994705507736  0.23766641429690213  Uiso  ?  O
O1  1.0  0.6799459612314748  0.4526643808978679  0.20862486253227874  Uiso  ?  O
O1  1.0  0.6906009205070409  0.43661585978570366  0.17645628018263684  Uiso  ?  O
O1  1.0  0.6479951225825983  0.4347051449272058  0.20258767367791758  Uiso  ?  O
O1  1.0  0.6573027221759323  0.42165822024797067  0.1704898105277954  Uiso  ?  O
O1  1.0  0.5742212063257722  0.46306959663497077  0.29743178906740725  Uiso  ?  O
O1  1.0  0.5267916883426066  0.46179532160962306  0.32615440534113177  Uiso  ?  O
O1  1.0  0.538527279048334  0.4488315698849049  0.29177070640431757  Uiso  ?  O
O1  1.0  0.5875430529912723  0.450272325490614  0.2632186272461162  Uiso  ?  O
O1  1.0  0.5985175055235753  0.4365816067575871  0.23197355844971324  Uiso  ?  O
O1  1.0  0.5509015732049293  0.43534740877865824  0.25878521483910766  Uiso  ?  O
O1  1.0  0.5528522488894121  0.4540900955203759  0.20796457251912523  Uiso  ?  O
O1  1.0  0.5635145842680429  0.4215057720910823  0.22414836882743355  Uiso  ?  O
Ce1  1.0  0.5788361613115445  0.43813443036622346  0.20135514898795936  Uiso  ?  Ce
Ce1  1.0  0.6252002453155631  0.4391541916566637  0.172533048618166  Uiso  ?  Ce
O1  1.0  0.5962615566901069  0.4540843749040721  0.17770681483459222  Uiso  ?  O
O1  1.0  0.6117666785594317  0.42203689208900025  0.19720310588064294  Uiso  ?  O
O1  1.0  0.6232646986336537  0.4072202104007416  0.16374182004481128  Uiso  ?  O
O1  1.0  0.5618658019339291  0.44055684702893017  0.17354589416883512  Uiso  ?  O
O1  1.0  0.5745813572365682  0.4062717097766413  0.19154867739312553  Uiso  ?  O
O1  1.0  0.5847974296030085  0.3918021757477287  0.15432798712724893  Uiso  ?  O
O1  1.0  0.47651668471958064  0.46187095908485215  0.3557471996465375  Uiso  ?  O
O1  1.0  0.4293479866403439  0.4609845947294912  0.381256333556623  Uiso  ?  O
O1  1.0  0.4441686112783587  0.44745636335019356  0.34552105713934117  Uiso  ?  O
Ce1  1.0  0.4590880357250803  0.4626977105113172  0.3271358110395701  Uiso  ?  Ce
O1  1.0  0.4913573233752612  0.44977208585898315  0.32145254442610816  Uiso  ?  O
O1  1.0  0.5021675226837377  0.4320723078131451  0.2843414863384355  Uiso  ?  O
O1  1.0  0.45649063328053624  0.4314190467629289  0.31420853850805475  Uiso  ?  O
O1  1.0  0.4564116192833433  0.452118891730842  0.2615368326741371  Uiso  ?  O
O1  1.0  0.4654107980016892  0.41934501939510854  0.27655041602911906  Uiso  ?  O
Ce1  1.0  0.4888664157566924  0.4582754111359801  0.20571461103132635  Uiso  ?  Ce
Ce1  1.0  0.48640095378311393  0.43740500581413855  0.25575719667325864  Uiso  ?  Ce
Ce1  1.0  0.5346776582652903  0.43711374098445926  0.2252826424448548  Uiso  ?  Ce
O1  1.0  0.5049837391456383  0.4534806534365582  0.23491414571967997  Uiso  ?  O
O1  1.0  0.5130208306901434  0.4178408474451575  0.2491479887896569  Uiso  ?  O
O1  1.0  0.5162052711908883  0.43958279604542766  0.2030961237787606  Uiso  ?  O
O1  1.0  0.5278498402746069  0.40721599109896894  0.21699477917999335  Uiso  ?  O
O1  1.0  0.46799243999692847  0.43869157963961697  0.22906456125255578  Uiso  ?  O
O1  1.0  0.48008345451763207  0.4027579241761811  0.24726386818669613  Uiso  ?  O
O1  1.0  0.47961681541421675  0.4248040350604708  0.19322089078390123  Uiso  ?  O
O1  1.0  0.491594822498482  0.390752098659275  0.20972228240706384  Uiso  ?  O
Ce1  1.0  0.5344029095258592  0.45532146223695685  0.17858345066071724  Uiso  ?  Ce
Ce1  1.0  0.5109765756076541  0.4080615910401568  0.18586141421345548  Uiso  ?  Ce
Ce1  1.0  0.5572201474930636  0.4067787979517695  0.16129115566273794  Uiso  ?  Ce
O1  1.0  0.5274264994276435  0.4250371764429523  0.1624059223040334  Uiso  ?  O
O1  1.0  0.5397606769995794  0.3900928038052426  0.18166867079389404  Uiso  ?  O
O1  1.0  0.49162037917233936  0.40965616790793424  0.16019144591102458  Uiso  ?  O
O1  1.0  0.38110577333625123  0.46313174826521175  0.41019852801319723  Uiso  ?  O
O1  1.0  0.33432880151390026  0.46314549779457803  0.43732638901854937  Uiso  ?  O
O1  1.0  0.3460416627833512  0.44295635791329013  0.3994250434584485  Uiso  ?  O
Ce1  1.0  0.3650202944260324  0.46097428823360836  0.37915482736998735  Uiso  ?  Ce
Ce1  1.0  0.4127936758959945  0.46428380319701174  0.3486771036895757  Uiso  ?  Ce
O1  1.0  0.3946258475159247  0.44833569569523496  0.37338210721392573  Uiso  ?  O
O1  1.0  0.40811812003630915  0.43352063807249236  0.33951178484922145  Uiso  ?  O
O1  1.0  0.3591772868373996  0.4304578951948251  0.371069627184219  Uiso  ?  O
O1  1.0  0.3589523583562163  0.44969873007115263  0.3187192059984323  Uiso  ?  O
O1  1.0  0.37229923705562623  0.4174457930540324  0.3329216387276485  Uiso  ?  O
Ce1  1.0  0.3914170119451872  0.45333976976962753  0.25892078784114597  Uiso  ?  Ce
Ce1  1.0  0.3885099673517986  0.4333371906646643  0.312917303469932  Uiso  ?  Ce
Ce1  1.0  0.43546730480047713  0.43571929066592496  0.28316065288293546  Uiso  ?  Ce
O1  1.0  0.4087642812423229  0.4504406267150081  0.28828637505685445  Uiso  ?  O
O1  1.0  0.41794284884344696  0.41666916275506216  0.3053515231911349  Uiso  ?  O
O1  1.0  0.4206913651804898  0.436646148234439  0.2543820021114574  Uiso  ?  O
O1  1.0  0.4316505046919011  0.405503835635821  0.27524858186856654  Uiso  ?  O
O1  1.0  0.3720395199837432  0.4362117793682302  0.28506918056204905  Uiso  ?  O
O1  1.0  0.38692918316553104  0.40387295660563294  0.3023255498157138  Uiso  ?  O
O1  1.0  0.385504107470327  0.4235914779479075  0.24758806477244266  Uiso  ?  O
O1  1.0  0.3940663380441951  0.389339453014208  0.26600643317187556  Uiso  ?  O
Ce1  1.0  0.4383743103581502  0.45424874779630037  0.23259669161775354  Uiso  ?  Ce
Ce1  1.0  0.41447736327883755  0.4221455504856262  0.19231115463528592  Uiso  ?  Ce
Ce1  1.0  0.41388603269485774  0.4067637915366302  0.24504619428632454  Uiso  ?  Ce
Ce1  1.0  0.4595541106510364  0.4047947850802718  0.21520132680239173  Uiso  ?  Ce
O1  1.0  0.4326181380860376  0.42151144965970966  0.21867930376535274  Uiso  ?  O
O1  1.0  0.4452622347205683  0.39185840965946894  0.23785781208447543  Uiso  ?  O
O1  1.0  0.44752536763732004  0.4105434691651383  0.18851591029392142  Uiso  ?  O
O1  1.0  0.3988030536018745  0.4077883402140057  0.21737938978714735  Uiso  ?  O
O1  1.0  0.4107380662369736  0.39307013310547156  0.1790453194054666  Uiso  ?  O
Ce1  1.0  0.46408936332694534  0.42470601816230513  0.16467423544526602  Uiso  ?  Ce
O1  1.0  0.2859830041855109  0.4601104729635437  0.46463421581886144  Uiso  ?  O
O1  1.0  0.2389069281898769  0.4585991475026075  0.49077163486177605  Uiso  ?  O
O1  1.0  0.25309216292947373  0.44397942565223736  0.4589544860173468  Uiso  ?  O
Ce1  1.0  0.2719064633095454  0.4618638994569871  0.4351083868579163  Uiso  ?  Ce
Ce1  1.0  0.31825802367354045  0.46199073563183146  0.40679076415131266  Uiso  ?  Ce
O1  1.0  0.29791537205803903  0.44411565420555293  0.42969254333655116  Uiso  ?  O
O1  1.0  0.3011049189793693  0.46569688180652913  0.37797475011650816  Uiso  ?  O
O1  1.0  0.3088494136993287  0.43087029816035927  0.3976902649230515  Uiso  ?  O
O1  1.0  0.2518625790394921  0.4626514825518361  0.40695979119211056  Uiso  ?  O
O1  1.0  0.26630459548961394  0.42702351872058397  0.42488976555108915  Uiso  ?  O
O1  1.0  0.26321985015271776  0.44875218367164504  0.3689592046068826  Uiso  ?  O
O1  1.0  0.2766985203784554  0.41490527264027693  0.38903789667481514  Uiso  ?  O
Ce1  1.0  0.2962408016005676  0.4522413250324693  0.3160690882054367  Uiso  ?  Ce
Ce1  1.0  0.29536236186857256  0.4338935516018095  0.36896321632077017  Uiso  ?  Ce
Ce1  1.0  0.34269178620156454  0.4339435101438529  0.33915963925789055  Uiso  ?  Ce
O1  1.0  0.31283208875279045  0.45122246351122314  0.3430820372735415  Uiso  ?  O
O1  1.0  0.32472306653043453  0.41614572849424347  0.3645777731347211  Uiso  ?  O
O1  1.0  0.32375327014306576  0.43458578948551774  0.309305943297238  Uiso  ?  O
O1  1.0  0.3372054609557024  0.4042229266164  0.328388086956478  Uiso  ?  O
O1  1.0  0.2784813062322453  0.43555375204809826  0.3399793726381706  Uiso  ?  O
O1  1.0  0.28833544669795425  0.40155154571098073  0.3566557752825056  Uiso  ?  O
O1  1.0  0.2896621409489714  0.41979617640835715  0.30197267265689026  Uiso  ?  O
Ce1  1.0  0.34410231703433053  0.45394698185575977  0.28639678177365446  Uiso  ?  Ce
Ce1  1.0  0.3228125466032197  0.41844475812761167  0.25008805432105535  Uiso  ?  Ce
Ce1  1.0  0.31970340816511394  0.4036865483527109  0.29958757842975403  Uiso  ?  Ce
Ce1  1.0  0.36693530279389996  0.40501424319323504  0.27106934615998163  Uiso  ?  Ce
O1  1.0  0.3385649742168812  0.41829149066425975  0.2764088071467078  Uiso  ?  O
O1  1.0  0.3524107718234785  0.40613764978797723  0.24314344959698472  Uiso  ?  O
O1  1.0  0.30224725764874594  0.4042448569815267  0.269049884932053  Uiso  ?  O
O1  1.0  0.3120241983402262  0.39162722380442894  0.23732302632698002  Uiso  ?  O
Ce1  1.0  0.36752522033265483  0.4243245748146156  0.2195231905483447  Uiso  ?  Ce
Ce1  1.0  0.3447639872788427  0.3945981200653269  0.17961624541022805  Uiso  ?  Ce
O1  1.0  0.36364129258699796  0.39412834100151534  0.20880520941921887  Uiso  ?  O
O1  1.0  0.19113000805363112  0.4559586964552001  0.5195251467871481  Uiso  ?  O
O1  1.0  0.15788272161683237  0.4425483640793359  0.5151910873412894  Uiso  ?  O
Ce1  1.0  0.1726591265326185  0.45724628748986584  0.49334088891414685  Uiso  ?  Ce
Ce1  1.0  0.2231640827713784  0.4589811560593188  0.46393352834679263  Uiso  ?  Ce
O1  1.0  0.20474947104101454  0.44482956240742894  0.48488744307192644  Uiso  ?  O
O1  1.0  0.2049903218380567  0.46214386248621575  0.433350799981292  Uiso  ?  O
O1  1.0  0.21467267974103216  0.42975238189625425  0.4503602955505717  Uiso  ?  O
O1  1.0  0.17014727133804955  0.43003222544619274  0.47713257232064193  Uiso  ?  O
O1  1.0  0.16948479360036886  0.44792174121691375  0.4272440646133135  Uiso  ?  O
O1  1.0  0.1805209304147861  0.41561092857952175  0.44173508696987773  Uiso  ?  O
Ce1  1.0  0.2026278193205757  0.4470659309567435  0.3703274178639557  Uiso  ?  Ce
Ce1  1.0  0.20118147339112913  0.43026500256929956  0.4220037518985935  Uiso  ?  Ce
Ce1  1.0  0.2467227714358546  0.432073501988237  0.3930277391506102  Uiso  ?  Ce
O1  1.0  0.2168345776137413  0.4478558159908233  0.4006348223818913  Uiso  ?  O
O1  1.0  0.22998820764805555  0.4152460651807557  0.4183362944162071  Uiso  ?  O
O1  1.0  0.22866099582346153  0.4330688338132526  0.3669002737841968  Uiso  ?  O
O1  1.0  0.2408448837046892  0.40083456418079194  0.38186462151168205  Uiso  ?  O
O1  1.0  0.1812119257798159  0.43126483796156573  0.3934689291271133  Uiso  ?  O
O1  1.0  0.19647257096042756  0.4004235151773182  0.4089548863659283  Uiso  ?  O
O1  1.0  0.19617261518022325  0.41551990009739465  0.36016665185464347  Uiso  ?  O
Ce1  1.0  0.2474191843005995  0.449149266519917  0.3449000995632416  Uiso  ?  Ce
Ce1  1.0  0.2286847690980457  0.42034024048869917  0.30393897126086333  Uiso  ?  Ce
Ce1  1.0  0.22641544722094495  0.40320270175718514  0.35461638677282126  Uiso  ?  Ce
Ce1  1.0  0.2717426944186501  0.40299009487200677  0.3276765181327302  Uiso  ?  Ce
O1  1.0  0.24324718155579736  0.42086970548911634  0.33075415936761715  Uiso  ?  O
O1  1.0  0.2547592882396457  0.40362958468502835  0.29899208543942773  Uiso  ?  O
O1  1.0  0.20736796529728782  0.40384613218637594  0.3245738543605258  Uiso  ?  O
O1  1.0  0.21790329284350596  0.3892489082562635  0.2910370293904469  Uiso  ?  O
Ce1  1.0  0.27462702287972757  0.4234319968584772  0.2741021518642117  Uiso  ?  Ce
Ce1  1.0  0.25278637483392186  0.39336956714191296  0.2340620674601009  Uiso  ?  Ce
O1  1.0  0.2672383734787843  0.39057862289630896  0.26570836408508114  Uiso  ?  O
Ce1  1.0  0.29919244129268  0.39410305269294577  0.20452238530310488  Uiso  ?  Ce
Ce1  1.0  0.15392448985099325  0.4291662726092182  0.44733441798835033  Uiso  ?  Ce
O1  1.0  0.14575577176756274  0.3983520331165907  0.440121104541417  Uiso  ?  O
Ce1  1.0  0.17904747683816985  0.4028679509862239  0.38271879326376096  Uiso  ?  Ce
O1  1.0  0.1451658259589164  0.4186789970744374  0.38617939993476325  Uiso  ?  O
O1  1.0  0.15851572375170714  0.4047419676237384  0.3535449157558421  Uiso  ?  O
Ce1  1.0  0.17914229409689675  0.421162329171658  0.33073084662907953  Uiso  ?  Ce
Ce1  1.0  0.15448496547048493  0.39178314311851314  0.2887789659557316  Uiso  ?  Ce
O1  1.0  0.1732996009460312  0.38879817424063223  0.31759180328581926  Uiso  ?  O
Ce1  1.0  0.2013263378104427  0.3898414575597012  0.2632800750848752  Uiso  ?  Ce
O1  1.0  0.780423428200883  0.4567339428195267  0.3333990751425655  Uiso  ?  O
O1  1.0  0.7956915495713212  0.4454302905213171  0.2949162017671972  Uiso  ?  O
O1  1.0  0.793750905623362  0.4632544109978773  0.24511066356688668  Uiso  ?  O
O1  1.0  0.739262849699285  0.45693133745053616  0.3595044836868896  Uiso  ?  O
O1  1.0  0.6883522161275039  0.45819262469479183  0.38528152473976307  Uiso  ?  O
O1  1.0  0.7019575138124605  0.4424919840607319  0.353007819777219  Uiso  ?  O
Ce1  1.0  0.7172097935942304  0.45890140402163104  0.3295452469136528  Uiso  ?  Ce
Ce1  1.0  0.7635688258547946  0.46219737977939895  0.30100762057439995  Uiso  ?  Ce
O1  1.0  0.7489250717927765  0.4437328730749275  0.3264122829857247  Uiso  ?  O
O1  1.0  0.7489971856032769  0.464235931238465  0.27401058865261346  Uiso  ?  O
O1  1.0  0.761214041948065  0.4309961009847024  0.29242737182691314  Uiso  ?  O
O1  1.0  0.7043322777229547  0.46284551180797895  0.29997813443692706  Uiso  ?  O
O1  1.0  0.7111585449896283  0.43044454291473416  0.31705177129844003  Uiso  ?  O
O1  1.0  0.7136418613962454  0.4482496605184442  0.26844260360936933  Uiso  ?  O
O1  1.0  0.7260166480915827  0.41295587964424574  0.2873225024277234  Uiso  ?  O
Ce1  1.0  0.7444684667309724  0.4495244363085337  0.20975954769619698  Uiso  ?  Ce
Ce1  1.0  0.7441207965509651  0.43086134147406197  0.2648018699557969  Uiso  ?  Ce
Ce1  1.0  0.7913667674358752  0.4364064618586509  0.2353618212000277  Uiso  ?  Ce
O1  1.0  0.7595154541368434  0.44978592287089847  0.24011684570120578  Uiso  ?  O
O1  1.0  0.7723851268733775  0.4149993478672648  0.25948396663636647  Uiso  ?  O
O1  1.0  0.7731594962507436  0.43341878289646885  0.20634689970334005  Uiso  ?  O
O1  1.0  0.7865252586721291  0.40194318599513446  0.22393733242739447  Uiso  ?  O
O1  1.0  0.7276674240715553  0.43334837973763557  0.23244896054356948  Uiso  ?  O
O1  1.0  0.7342932150979256  0.4016912758116391  0.2524263509829731  Uiso  ?  O
O1  1.0  0.739013287463118  0.42133725699571195  0.2010973674634586  Uiso  ?  O
Ce1  1.0  0.7680038888076857  0.4050433416717306  0.19304014646423706  Uiso  ?  Ce
O1  1.0  0.7853508785998639  0.42131174704531865  0.17202550198068936  Uiso  ?  O
O1  1.0  0.7504054208164803  0.40485988431121783  0.1648740892347644  Uiso  ?  O
O1  1.0  0.6413004804625058  0.4596630406067154  0.41493476569648663  Uiso  ?  O
O1  1.0  0.5917430929140809  0.4572655542139407  0.4419920731943162  Uiso  ?  O
O1  1.0  0.6030488605359581  0.44383795552982236  0.4117859176212967  Uiso  ?  O
Ce1  1.0  0.6239769073746494  0.4567304457716148  0.38658312156111013  Uiso  ?  Ce
Ce1  1.0  0.6704351062879136  0.4611148343536759  0.3596457474848023  Uiso  ?  Ce
O1  1.0  0.6519108346570192  0.44223960304528187  0.3797687959011302  Uiso  ?  O
O1  1.0  0.6538178214391134  0.463282409418017  0.3289175014319874  Uiso  ?  O
O1  1.0  0.66312633627517  0.42938387709451314  0.3465761466012233  Uiso  ?  O
O1  1.0  0.6086566452745573  0.4612589776951544  0.36029153104792255  Uiso  ?  O
O1  1.0  0.6193309844798486  0.42605580847013585  0.37677549666506444  Uiso  ?  O
O1  1.0  0.6165709820556029  0.44605241758455394  0.3213163269460492  Uiso  ?  O
O1  1.0  0.6314220366497861  0.4111264216101852  0.3422505603976  Uiso  ?  O
Ce1  1.0  0.6488828353134645  0.45178819917050345  0.2664834505009861  Uiso  ?  Ce
Ce1  1.0  0.6463126837664184  0.42904911826096587  0.31786395394329703  Uiso  ?  Ce
Ce1  1.0  0.6973812758085638  0.4302484510602525  0.2932960401620026  Uiso  ?  Ce
O1  1.0  0.6662202452702646  0.4475651378078707  0.29550324295580754  Uiso  ?  O
O1  1.0  0.6751679328477125  0.41518760942076677  0.30993264160376116  Uiso  ?  O
O1  1.0  0.6821350372730187  0.4312202940439759  0.26200511471105786  Uiso  ?  O
O1  1.0  0.6912378353962463  0.4005685456514664  0.279361681952501  Uiso  ?  O
O1  1.0  0.6318255887324689  0.43003279433153785  0.29072460305598585  Uiso  ?  O
O1  1.0  0.6430138819310582  0.3981631412074033  0.3070114036488414  Uiso  ?  O
O1  1.0  0.6442999773201473  0.41620782409261287  0.25335478072924283  Uiso  ?  O
Ce1  1.0  0.6949230815741068  0.4506780890211935  0.23825212853165564  Uiso  ?  Ce
Ce1  1.0  0.6739574485574223  0.42156093944561157  0.1980954610400433  Uiso  ?  Ce
Ce1  1.0  0.6713730638339075  0.39878444852103656  0.2498634058901711  Uiso  ?  Ce
Ce1  1.0  0.720129798338688  0.40320510196871884  0.22208960010916554  Uiso  ?  Ce
O1  1.0  0.689482044979728  0.41672887453238316  0.22887609051582078  Uiso  ?  O
O1  1.0  0.7013846370575605  0.404622751526474  0.1934653622179196  Uiso  ?  O
O1  1.0  0.6548761813794645  0.4041014750621941  0.22034424177032702  Uiso  ?  O
O1  1.0  0.6669372344798007  0.3909544295018121  0.18444890287202909  Uiso  ?  O
Ce1  1.0  0.7195626670005691  0.42065546848392465  0.1721022935811699  Uiso  ?  Ce
O1  1.0  0.7171449570202919  0.389622096412047  0.1598974407311028  Uiso  ?  O
O1  1.0  0.5467716787479519  0.4566201963398081  0.47089424923587847  Uiso  ?  O
O1  1.0  0.4952938598073864  0.4542619081325529  0.4984074369013621  Uiso  ?  O
O1  1.0  0.5086775064875297  0.44126797431065545  0.46381357921545446  Uiso  ?  O
Ce1  1.0  0.5290036111611559  0.4570963058358932  0.4397925515589988  Uiso  ?  Ce
Ce1  1.0  0.5762959308247201  0.45752795835688315  0.4140800230385549  Uiso  ?  Ce
O1  1.0  0.555608049050822  0.4411040144241119  0.4353831644220628  Uiso  ?  O
O1  1.0  0.557157615927874  0.4592917763844975  0.38569814272582004  Uiso  ?  O
O1  1.0  0.5689504036546261  0.42615042066411835  0.4018762144164032  Uiso  ?  O
O1  1.0  0.5106855799066746  0.4582730645500713  0.4128018334113905  Uiso  ?  O
O1  1.0  0.5202166188950123  0.4242242033413561  0.4298961224003007  Uiso  ?  O
O1  1.0  0.5240723244856611  0.4433598966916587  0.3789726264909482  Uiso  ?  O
O1  1.0  0.5346129661508383  0.41116885795880576  0.395573914950733  Uiso  ?  O
Ce1  1.0  0.5541782711253114  0.448230766825048  0.32138308549007655  Uiso  ?  Ce
Ce1  1.0  0.5526221972891953  0.4273544853382586  0.3748307806226905  Uiso  ?  Ce
Ce1  1.0  0.6021781827704543  0.4284423564827193  0.34712953274971114  Uiso  ?  Ce
O1  1.0  0.5702669182195219  0.44662107480070606  0.3511320485321966  Uiso  ?  O
O1  1.0  0.5807386674715853  0.411241173198447  0.3679950512664701  Uiso  ?  O
O1  1.0  0.5810672162732451  0.4316476580237835  0.3168363050250014  Uiso  ?  O
O1  1.0  0.5942847590552198  0.39866310866507143  0.3326167206163827  Uiso  ?  O
O1  1.0  0.5358961981254531  0.43010074861572173  0.3422948131049991  Uiso  ?  O
O1  1.0  0.5498540742656154  0.3982308927826097  0.36214878427079505  Uiso  ?  O
O1  1.0  0.548745964023709  0.4155124594516531  0.3097056846509504  Uiso  ?  O
Ce1  1.0  0.6002737210735465  0.4477987597917519  0.293807679521201  Uiso  ?  Ce
Ce1  1.0  0.5761716074032507  0.41969194648313496  0.2534699320033125  Uiso  ?  Ce
Ce1  1.0  0.5778096315679347  0.39977533906665846  0.30571285399100007  Uiso  ?  Ce
Ce1  1.0  0.6253813108716938  0.39866040143293097  0.27670292614913405  Uiso  ?  Ce
O1  1.0  0.5981641877084481  0.4193977158576237  0.2853043577379232  Uiso  ?  O
O1  1.0  0.6097363740638958  0.4055579499094966  0.24737284638645116  Uiso  ?  O
O1  1.0  0.5595884470191399  0.3998918796940632  0.2730966986028952  Uiso  ?  O
Ce1  1.0  0.6238828067258932  0.41973266651079444  0.22542201855799882  Uiso  ?  Ce
Ce1  1.0  0.6027657922858956  0.3904291573067673  0.1862363531178961  Uiso  ?  Ce
O1  1.0  0.6220747056905496  0.38796657993687705  0.21493066032976726  Uiso  ?  O
Ce1  1.0  0.6523420783995577  0.39383342946983596  0.15824365803810916  Uiso  ?  Ce
O1  1.0  0.4476686048434165  0.45005133005979486  0.5246642198597207  Uiso  ?  O
O1  1.0  0.4012456723969869  0.45260802701227354  0.5534140152101011  Uiso  ?  O
O1  1.0  0.4143214387472135  0.4383576187226386  0.5203372644234076  Uiso  ?  O
Ce1  1.0  0.4336646501327048  0.45455547986907  0.4954705468907657  Uiso  ?  Ce
Ce1  1.0  0.47970025204025823  0.45651355874377114  0.4713437255937075  Uiso  ?  Ce
O1  1.0  0.46122129698282005  0.43757560575101534  0.4918536757157095  Uiso  ?  O
O1  1.0  0.4623654044260138  0.45663521448311867  0.4398695512499696  Uiso  ?  O
O1  1.0  0.4751946951067127  0.42538711174842675  0.4577824314892319  Uiso  ?  O
O1  1.0  0.41726248531523225  0.45593496010648743  0.46730907631317026  Uiso  ?  O
O1  1.0  0.42806402572777463  0.4221268580186586  0.48421835680308123  Uiso  ?  O
O1  1.0  0.42777497331321546  0.44407348087245596  0.4334793969965538  Uiso  ?  O
O1  1.0  0.43934846455761617  0.40944066294715464  0.45006191142914587  Uiso  ?  O
Ce1  1.0  0.45745618573094987  0.4434146672637534  0.3756248546608773  Uiso  ?  Ce
Ce1  1.0  0.45712801257586716  0.4285439625140915  0.42544327246874547  Uiso  ?  Ce
Ce1  1.0  0.5058504626460297  0.4288505502174037  0.40355815546088  Uiso  ?  Ce
O1  1.0  0.47811750255220004  0.4438282936847536  0.4019071507741519  Uiso  ?  O
O1  1.0  0.4886166544086447  0.4123174633446138  0.42355659457254297  Uiso  ?  O
O1  1.0  0.4888651918527039  0.42988103218510204  0.37247817635126407  Uiso  ?  O
O1  1.0  0.5015185727288983  0.3980576231213602  0.38773910558891395  Uiso  ?  O
O1  1.0  0.4420265208129323  0.4310095057254199  0.4010887731356816  Uiso  ?  O
O1  1.0  0.45250344034025586  0.395196165076785  0.4147398079829077  Uiso  ?  O
O1  1.0  0.4521554104817471  0.41526136185973517  0.36604736610046235  Uiso  ?  O
Ce1  1.0  0.5026782119349885  0.445692665145371  0.348172962897219  Uiso  ?  Ce
Ce1  1.0  0.48158206765877637  0.41613599268305446  0.3076191585588399  Uiso  ?  Ce
Ce1  1.0  0.48323900468110137  0.39677666371704595  0.3609915240497048  Uiso  ?  Ce
Ce1  1.0  0.5275025192794559  0.3981724846855593  0.33407296240454515  Uiso  ?  Ce
O1  1.0  0.5008286457806961  0.41541486633877844  0.3355095729850751  Uiso  ?  O
O1  1.0  0.5091769493968185  0.3981076117604014  0.307357878744801  Uiso  ?  O
O1  1.0  0.46533740478208696  0.4012605356188559  0.33111892627729783  Uiso  ?  O
Ce1  1.0  0.5320566166595295  0.4174403217221014  0.2785290306781519  Uiso  ?  Ce
Ce1  1.0  0.50694198909589  0.39008910055369483  0.23879785439018605  Uiso  ?  Ce
Ce1  1.0  0.5534562587650328  0.3899369513263732  0.21175049846643476  Uiso  ?  Ce
O1  1.0  0.35484251342166817  0.4529706798277353  0.5812775024404058  Uiso  ?  O
O1  1.0  0.30727873868707956  0.4512174756969559  0.6109301047302413  Uiso  ?  O
O1  1.0  0.3188092269797026  0.43670716053164577  0.575599160647327  Uiso  ?  O
Ce1  1.0  0.3394419977406916  0.4516208924464124  0.5515924464142646  Uiso  ?  Ce
Ce1  1.0  0.3866931646971377  0.4551037241935171  0.5210110229814982  Uiso  ?  Ce
O1  1.0  0.36561799347386736  0.43874645911073046  0.545991409688488  Uiso  ?  O
O1  1.0  0.36950139105621926  0.45516725651042017  0.4931851569265989  Uiso  ?  O
O1  1.0  0.38059726079328393  0.42226218218715006  0.508652685115384  Uiso  ?  O
O1  1.0  0.3210866024789789  0.45682380740968487  0.5247958744435701  Uiso  ?  O
O1  1.0  0.333448841209569  0.42396145105110367  0.5405048103282124  Uiso  ?  O
O1  1.0  0.3336703536135571  0.43911455641321434  0.4873519466374576  Uiso  ?  O
O1  1.0  0.34555108396666806  0.40904510825114737  0.5063833510601258  Uiso  ?  O
Ce1  1.0  0.3658064918372584  0.4413263740651252  0.43284168810786705  Uiso  ?  Ce
Ce1  1.0  0.36199150991766044  0.42403890133627137  0.48494167850686914  Uiso  ?  Ce
Ce1  1.0  0.40930952526211906  0.4249141397485147  0.45621575020516836  Uiso  ?  Ce
O1  1.0  0.3807954575287033  0.4417678653844078  0.4599050818828762  Uiso  ?  O
O1  1.0  0.39330830002454703  0.40737053461254646  0.48237983162099685  Uiso  ?  O
O1  1.0  0.3951286186937413  0.4269258788939984  0.4269236631363082  Uiso  ?  O
O1  1.0  0.4034019950424294  0.39267013586015154  0.4452166539678609  Uiso  ?  O
O1  1.0  0.3455305215161694  0.42524547952722924  0.45373226545996165  Uiso  ?  O
O1  1.0  0.3557339183793629  0.3943496402270002  0.47525719581012743  Uiso  ?  O
O1  1.0  0.35695685138829086  0.41329167732045613  0.4192893349969517  Uiso  ?  O
Ce1  1.0  0.41023968333636107  0.4442690234972048  0.40438434425747255  Uiso  ?  Ce
Ce1  1.0  0.38796003777521454  0.4142656543212695  0.3658271273051479  Uiso  ?  Ce
Ce1  1.0  0.3845785608378427  0.3977044863993933  0.4158839870388756  Uiso  ?  Ce
Ce1  1.0  0.43383948150003027  0.39436221900790563  0.387440445343595  Uiso  ?  Ce
O1  1.0  0.4066759314506556  0.41385113842664056  0.3917592469677102  Uiso  ?  O
O1  1.0  0.41587492376306145  0.40139753366416375  0.35907637062975295  Uiso  ?  O
O1  1.0  0.3718486374457824  0.39871604259299054  0.3859212509939593  Uiso  ?  O
Ce1  1.0  0.4351700718332969  0.41469014893913086  0.33652205272870006  Uiso  ?  Ce
O1  1.0  0.20149068801474163  0.46489252433371187  0.698187030951734  Uiso  ?  O
O1  1.0  0.24460179149308767  0.4645346647754822  0.667333806444176  Uiso  ?  O
O1  1.0  0.2598028379152493  0.44963956064597255  0.6343969647702021  Uiso  ?  O
O1  1.0  0.2132881487859224  0.44787589804515127  0.664009683577812  Uiso  ?  O
O1  1.0  0.22595734155758332  0.4330472877194043  0.6295069154078587  Uiso  ?  O
Ce1  1.0  0.24372507093487034  0.45234746959868655  0.6050049735396511  Uiso  ?  Ce
Ce1  1.0  0.28866807250030235  0.45634507650201916  0.5789802740870388  Uiso  ?  Ce
O1  1.0  0.2724356229312696  0.4374538363929455  0.6023014445880489  Uiso  ?  O
O1  1.0  0.273927762948411  0.45419627265893586  0.5478428799376447  Uiso  ?  O
O1  1.0  0.2856103320668459  0.4206633747761815  0.5672745970178559  Uiso  ?  O
O1  1.0  0.22802510332106143  0.4522961841834544  0.5777856754386711  Uiso  ?  O
O1  1.0  0.2335300061042298  0.4206283751608319  0.5943882567536727  Uiso  ?  O
O1  1.0  0.2369243600896564  0.4381328962440216  0.5458367966322231  Uiso  ?  O
O1  1.0  0.248752061691615  0.4080274897693957  0.5598032494252938  Uiso  ?  O
Ce1  1.0  0.26973281382348535  0.4418629705663716  0.48496807721053453  Uiso  ?  Ce
Ce1  1.0  0.2666621256943654  0.4232248836330769  0.5391662108889932  Uiso  ?  Ce
Ce1  1.0  0.3132410775592939  0.42450201619894096  0.5114544890690209  Uiso  ?  Ce
O1  1.0  0.2854216746428117  0.4416661268247735  0.5152189452907681  Uiso  ?  O
O1  1.0  0.2956521465891073  0.40520892089614613  0.5341816200428344  Uiso  ?  O
O1  1.0  0.29676950195551954  0.42596646557919293  0.4813474779855678  Uiso  ?  O
O1  1.0  0.30929328442334875  0.3889201769865173  0.5006728054045388  Uiso  ?  O
O1  1.0  0.2516582257244944  0.4257760492569794  0.5108503970877367  Uiso  ?  O
O1  1.0  0.2617067437428254  0.3925727651739959  0.5242496135339785  Uiso  ?  O
O1  1.0  0.2642266837684574  0.41077273268495457  0.4751734255858624  Uiso  ?  O
Ce1  1.0  0.31904792441092844  0.44234217444166213  0.4613431449639479  Uiso  ?  Ce
Ce1  1.0  0.29311916191360593  0.41383462188880066  0.41867568012075934  Uiso  ?  Ce
Ce1  1.0  0.29296427532518965  0.39416176586883217  0.46908628213187564  Uiso  ?  Ce
Ce1  1.0  0.3397705753603151  0.39342172613060505  0.4458557309633339  Uiso  ?  Ce
O1  1.0  0.30919541335454787  0.4092937985563741  0.447926466220577  Uiso  ?  O
O1  1.0  0.3218782072924045  0.4006165584627567  0.41110702591600007  Uiso  ?  O
O1  1.0  0.27692383281024546  0.3949873009441059  0.44277097675636584  Uiso  ?  O
Ce1  1.0  0.3376126119271882  0.4159595847622892  0.39475737944401507  Uiso  ?  Ce
O1  1.0  0.1655997872871566  0.44530210166482564  0.691318248280251  Uiso  ?  O
Ce1  1.0  0.14787844810037457  0.4505173533424344  0.6632749530283523  Uiso  ?  Ce
Ce1  1.0  0.19462272158289076  0.45092610686202417  0.6332106154313843  Uiso  ?  Ce
O1  1.0  0.17559295252089172  0.4342348294720255  0.6564369918610728  Uiso  ?  O
O1  1.0  0.17968229893610152  0.45250661467263437  0.6062053415708331  Uiso  ?  O
O1  1.0  0.19152746726382314  0.4189326998971904  0.6243096444176197  Uiso  ?  O
O1  1.0  0.15254836999260374  0.40179723853708904  0.6167244368304861  Uiso  ?  O
Ce1  1.0  0.17220868127300204  0.4374541308025691  0.5420374677935272  Uiso  ?  Ce
Ce1  1.0  0.17205378327388995  0.41910656691987447  0.5938886257262355  Uiso  ?  Ce
Ce1  1.0  0.21836987808208752  0.4246523958306379  0.5656915355124287  Uiso  ?  Ce
O1  1.0  0.191447747407175  0.43658631471074194  0.5685013593313867  Uiso  ?  O
O1  1.0  0.199707875554581  0.40563510728247804  0.5873140960281124  Uiso  ?  O
O1  1.0  0.20340758918914756  0.42358278208081857  0.5375024885431072  Uiso  ?  O
O1  1.0  0.21509886459485578  0.38936386257456373  0.5543021014784264  Uiso  ?  O
O1  1.0  0.15439724462751805  0.4250079934456867  0.5626201369778505  Uiso  ?  O
O1  1.0  0.16909700118925783  0.39105475305878445  0.5846455030782669  Uiso  ?  O
O1  1.0  0.1661787186692013  0.40966182932258666  0.5287639382210584  Uiso  ?  O
Ce1  1.0  0.22295028449347207  0.4415201278499875  0.512960709771142  Uiso  ?  Ce
Ce1  1.0  0.19901998374700666  0.4132993506639537  0.47486747730621937  Uiso  ?  Ce
Ce1  1.0  0.19576535718050517  0.3949531682531006  0.5228429781091023  Uiso  ?  Ce
Ce1  1.0  0.2456620745945215  0.3949250042379285  0.49841151516618154  Uiso  ?  Ce
O1  1.0  0.215522794435789  0.4101806461251971  0.504104414115868  Uiso  ?  O
O1  1.0  0.22805340448996303  0.3970954733744576  0.4692231224818921  Uiso  ?  O
O1  1.0  0.18081047463785793  0.39427822742118884  0.49811035514288404  Uiso  ?  O
Ce1  1.0  0.2462372367013079  0.4120578570706506  0.44649020456752225  Uiso  ?  Ce
Ce1  1.0  0.14711114109723156  0.39235620379453856  0.5515753878694957  Uiso  ?  Ce
Ce1  1.0  0.14963153696177897  0.4105906426866036  0.4994550441321404  Uiso  ?  Ce
O1  1.0  0.7459154255565358  0.4642782580426826  0.5387572720924821  Uiso  ?  O
O1  1.0  0.757091393521738  0.44981795331841207  0.5046368338791122  Uiso  ?  O
O1  1.0  0.7684721114970159  0.4389842454542137  0.46912546794727655  Uiso  ?  O
Ce1  1.0  0.7857104217983661  0.45032287884778427  0.44647088964611464  Uiso  ?  Ce
O1  1.0  0.7699038801090404  0.4556832969238184  0.41811088230299587  Uiso  ?  O
O1  1.0  0.7795486349020494  0.4223006721329903  0.43564935428684126  Uiso  ?  O
O1  1.0  0.7810469595574016  0.44358788451297854  0.38341918817227366  Uiso  ?  O
O1  1.0  0.7923884567623004  0.40787256052931087  0.4001299470576086  Uiso  ?  O
O1  1.0  0.7953556856779178  0.424525504729415  0.3501121292735772  Uiso  ?  O
O1  1.0  0.651321233525066  0.4627042996399124  0.5915845712913863  Uiso  ?  O
O1  1.0  0.69573050217243  0.4635506464349067  0.566591286306404  Uiso  ?  O
O1  1.0  0.7087483249681826  0.4498029899321093  0.532627465523599  Uiso  ?  O
O1  1.0  0.6600801298495971  0.44896491671895206  0.5578598136803734  Uiso  ?  O
O1  1.0  0.6748869122487177  0.43580459560003765  0.5260120284244125  Uiso  ?  O
Ce1  1.0  0.6917197263224372  0.45482029721697453  0.5018073419703317  Uiso  ?  Ce
Ce1  1.0  0.737588446773232  0.4504547410823912  0.47538194161652325  Uiso  ?  Ce
O1  1.0  0.7224065848809887  0.43283914568666937  0.49760336503889524  Uiso  ?  O
O1  1.0  0.7212275548561481  0.4537316504883204  0.4459469418871954  Uiso  ?  O
O1  1.0  0.7308737956027359  0.4212451507820712  0.46122799475163456  Uiso  ?  O
O1  1.0  0.6717829806360891  0.45270692082157926  0.47206747322667797  Uiso  ?  O
O1  1.0  0.6836940876876774  0.41956590342853217  0.49048190305816797  Uiso  ?  O
O1  1.0  0.6860110031344816  0.4379634275046662  0.436202770742247  Uiso  ?  O
O1  1.0  0.6959296325600876  0.4057406690295308  0.45668358932561953  Uiso  ?  O
Ce1  1.0  0.7152260521205401  0.4416136750764599  0.38293280671796076  Uiso  ?  Ce
Ce1  1.0  0.7173390424962676  0.42340317373565006  0.4337668995414224  Uiso  ?  Ce
Ce1  1.0  0.7668551720843072  0.4244869715601616  0.4044316718732417  Uiso  ?  Ce
O1  1.0  0.7328603683102602  0.43916945241233435  0.4105698741593854  Uiso  ?  O
O1  1.0  0.7455184326975556  0.4077647894369872  0.4290195336881861  Uiso  ?  O
O1  1.0  0.7456541463254676  0.42716741594342095  0.3785148125877019  Uiso  ?  O
O1  1.0  0.7568631654660879  0.3916965949354461  0.3975191418939753  Uiso  ?  O
O1  1.0  0.6987367175487971  0.4239358856124901  0.4024421884417951  Uiso  ?  O
O1  1.0  0.708617994248821  0.3926260364339341  0.4217893199643297  Uiso  ?  O
O1  1.0  0.7110453660143237  0.41122525492353795  0.36971483886827505  Uiso  ?  O
Ce1  1.0  0.7639375283308097  0.44062218807972725  0.3539454443510565  Uiso  ?  Ce
Ce1  1.0  0.7435791764467584  0.41365206528922693  0.31349292230380355  Uiso  ?  Ce
Ce1  1.0  0.74283882891509  0.39530939432056766  0.3675649614087883  Uiso  ?  Ce
Ce1  1.0  0.788533324324317  0.39956630975728735  0.33875768574271203  Uiso  ?  Ce
O1  1.0  0.7544537304524443  0.4124813810356906  0.3435431801061064  Uiso  ?  O
O1  1.0  0.7703433086402461  0.3969405751987386  0.3109505080198488  Uiso  ?  O
O1  1.0  0.7193470043242337  0.39448431395748057  0.3369953562773688  Uiso  ?  O
Ce1  1.0  0.7879931818121881  0.4131309528356326  0.28755844152001664  Uiso  ?  Ce
O1  1.0  0.5520846941371944  0.46168823736388265  0.6469063877795713  Uiso  ?  O
O1  1.0  0.601113599302723  0.4623190772561771  0.620038144637891  Uiso  ?  O
O1  1.0  0.6138891479427436  0.4459726332272655  0.5850857049916779  Uiso  ?  O
O1  1.0  0.5653856230501029  0.4470590332451512  0.6142201329898015  Uiso  ?  O
O1  1.0  0.5768804328281201  0.4326972100480882  0.5792968072167641  Uiso  ?  O
Ce1  1.0  0.5965051737690237  0.45067273588572204  0.5581410590795294  Uiso  ?  Ce
Ce1  1.0  0.6440589697153417  0.4475220915933453  0.5316462294618756  Uiso  ?  Ce
O1  1.0  0.6252567292083063  0.43316227603001456  0.5543746120996689  Uiso  ?  O
O1  1.0  0.62613135210754  0.45230530054443385  0.5025739055910392  Uiso  ?  O
O1  1.0  0.6381011252292274  0.4169651375035549  0.5199044805421138  Uiso  ?  O
O1  1.0  0.5816240529942224  0.4515630693708294  0.526444909731105  Uiso  ?  O
O1  1.0  0.5872677470152357  0.4197697829671349  0.5443067588545925  Uiso  ?  O
O1  1.0  0.5919902163879811  0.43563413136710183  0.49606217930807933  Uiso  ?  O
O1  1.0  0.6007442855449818  0.40339970591993507  0.5103634249973057  Uiso  ?  O
Ce1  1.0  0.6215960470311188  0.439456856232966  0.4355080896337767  Uiso  ?  Ce
Ce1  1.0  0.6205719970168524  0.4219122007315854  0.4883350253433469  Uiso  ?  Ce
Ce1  1.0  0.6651470990325076  0.42088145000492344  0.46068787089171354  Uiso  ?  Ce
O1  1.0  0.639558228313772  0.4385545461751917  0.4647643978850476  Uiso  ?  O
O1  1.0  0.6483832370486304  0.4045087833207583  0.48251940870329263  Uiso  ?  O
O1  1.0  0.6511390023223491  0.4247530633111696  0.4316306631965836  Uiso  ?  O
O1  1.0  0.6616017094251841  0.3916330878284631  0.4512920913961719  Uiso  ?  O
O1  1.0  0.6023809555443022  0.4247987266276733  0.458449322472727  Uiso  ?  O
O1  1.0  0.6141607762986429  0.3907367611212903  0.4768970279829082  Uiso  ?  O
O1  1.0  0.6156030558588258  0.4084778259111773  0.4254465682546816  Uiso  ?  O
Ce1  1.0  0.6710244591743509  0.4400419698649  0.4106107518804586  Uiso  ?  Ce
Ce1  1.0  0.6435043059976361  0.41296650916230465  0.36840841993790885  Uiso  ?  Ce
Ce1  1.0  0.6447200014609457  0.39298676485333356  0.42150463093437823  Uiso  ?  Ce
Ce1  1.0  0.6944805546309721  0.3944842413724592  0.39247482379847437  Uiso  ?  Ce
O1  1.0  0.6631374187495511  0.41060440009910243  0.3971621126363003  Uiso  ?  O
O1  1.0  0.677915384888829  0.397112180971558  0.3646917466163646  Uiso  ?  O
O1  1.0  0.6292858347590023  0.39390316415501775  0.3910186885865193  Uiso  ?  O
Ce1  1.0  0.6940413010100644  0.411250627531564  0.3408252462965487  Uiso  ?  Ce
O1  1.0  0.46026435444162567  0.4594619493737905  0.7027098298602947  Uiso  ?  O
O1  1.0  0.5043663745510393  0.4618061620116493  0.6749285634649024  Uiso  ?  O
O1  1.0  0.5180734438637554  0.44699896434623093  0.6411521953217757  Uiso  ?  O
O1  1.0  0.4709158669625419  0.4424130924211533  0.6684591566379715  Uiso  ?  O
O1  1.0  0.4722319040172691  0.4610758930127402  0.6178109573524386  Uiso  ?  O
O1  1.0  0.484452703494483  0.43109370245575607  0.6353723507193642  Uiso  ?  O
Ce1  1.0  0.5018666098555199  0.44502583584634403  0.6141324005046359  Uiso  ?  Ce
Ce1  1.0  0.5483094323906597  0.44718090380763015  0.5858214720637367  Uiso  ?  Ce
O1  1.0  0.5289987092233974  0.43320701363217884  0.6093345737777381  Uiso  ?  O
O1  1.0  0.5315028744098643  0.44885291409367806  0.5576308881952465  Uiso  ?  O
O1  1.0  0.5417973962997741  0.41716696795646097  0.5750543500305293  Uiso  ?  O
O1  1.0  0.48442403233430625  0.45172418084934485  0.5827349013856232  Uiso  ?  O
O1  1.0  0.4952840078557717  0.41717741653562124  0.6007164819380199  Uiso  ?  O
O1  1.0  0.49976214114525  0.43789812531975997  0.5474695216608358  Uiso  ?  O
O1  1.0  0.5091461664113125  0.4034775173741339  0.5637818813098513  Uiso  ?  O
Ce1  1.0  0.5258312144137696  0.43802188003048437  0.49143172418129605  Uiso  ?  Ce
Ce1  1.0  0.526421381410236  0.4192797187084562  0.5459349817303776  Uiso  ?  Ce
Ce1  1.0  0.5734023340471891  0.4207746351376668  0.5189239313595938  Uiso  ?  Ce
O1  1.0  0.5433727376179196  0.4370469877787426  0.5205836754239372  Uiso  ?  O
O1  1.0  0.5548004104795765  0.40272670850042996  0.5409208883477148  Uiso  ?  O
O1  1.0  0.5554334042365984  0.4207631940938318  0.48771305939366993  Uiso  ?  O
O1  1.0  0.5658411946943012  0.39072447203042515  0.5054659553866496  Uiso  ?  O
O1  1.0  0.50833033643705  0.4207350594302993  0.5158189449549243  Uiso  ?  O
O1  1.0  0.516783970605805  0.3899611355170463  0.5313533914246323  Uiso  ?  O
O1  1.0  0.5206071210885437  0.4055073828332114  0.47967901420024495  Uiso  ?  O
Ce1  1.0  0.5727830249749989  0.4383167687792315  0.4649338766008066  Uiso  ?  Ce
Ce1  1.0  0.5489706969460061  0.40952967460376505  0.42748342878212137  Uiso  ?  Ce
Ce1  1.0  0.5501795649112473  0.39333194935195126  0.4749767802032738  Uiso  ?  Ce
Ce1  1.0  0.5967904021218374  0.3911309944705239  0.44928723850314034  Uiso  ?  Ce
O1  1.0  0.5681975066011837  0.40704811540840463  0.45396126754033506  Uiso  ?  O
O1  1.0  0.5825681460527314  0.3907519280469436  0.41972483203485833  Uiso  ?  O
O1  1.0  0.5308804822151937  0.3931200666422093  0.4468355660822446  Uiso  ?  O
Ce1  1.0  0.5990661163100938  0.4110531581250096  0.3968761624362775  Uiso  ?  Ce
O1  1.0  0.41066088329782924  0.4596837319651398  0.7258859348300094  Uiso  ?  O
O1  1.0  0.4245914759501807  0.4436818696958146  0.6954534461802164  Uiso  ?  O
O1  1.0  0.3761557292946104  0.4436033495255441  0.7239685462871377  Uiso  ?  O
O1  1.0  0.3741174421711748  0.45925903169536136  0.670746439509489  Uiso  ?  O
O1  1.0  0.38820953587739027  0.4280293080740103  0.6907663060885313  Uiso  ?  O
Ce1  1.0  0.40977815713815624  0.44560869049034707  0.6651465587604143  Uiso  ?  Ce
Ce1  1.0  0.4539950869083474  0.4449465753224416  0.6422399418096137  Uiso  ?  Ce
O1  1.0  0.4250278345311891  0.46427396825395906  0.6441014906959877  Uiso  ?  O
O1  1.0  0.43187471108535835  0.4305166183670792  0.6629637396817714  Uiso  ?  O
O1  1.0  0.43505693332856027  0.45000085124948286  0.6127039057927293  Uiso  ?  O
O1  1.0  0.4500427430766246  0.4152581829822519  0.6288133001348608  Uiso  ?  O
O1  1.0  0.38785225076278523  0.4494266811551786  0.6386435752378503  Uiso  ?  O
O1  1.0  0.39972447079402684  0.4151876404003819  0.6572309178129739  Uiso  ?  O
O1  1.0  0.3991831000859535  0.43485233240542226  0.6036798637100848  Uiso  ?  O
O1  1.0  0.41111583616559966  0.404363663384022  0.6207872294555058  Uiso  ?  O
Ce1  1.0  0.43134491131843394  0.43575570035021854  0.5505440018558743  Uiso  ?  Ce
Ce1  1.0  0.43064865047606793  0.420659836729025  0.6000226438444646  Uiso  ?  Ce
Ce1  1.0  0.4806388114554015  0.421733178006622  0.5730644570220973  Uiso  ?  Ce
O1  1.0  0.45006680506023417  0.43196621181520584  0.5804204154271828  Uiso  ?  O
O1  1.0  0.45880197872495926  0.4012023028796866  0.594093577257215  Uiso  ?  O
O1  1.0  0.45940720452456524  0.41820647456362364  0.5426672279358662  Uiso  ?  O
O1  1.0  0.41654049170303503  0.41673991161244284  0.5714615967547217  Uiso  ?  O
O1  1.0  0.4268087079346639  0.40528335502933444  0.5359177981176496  Uiso  ?  O
Ce1  1.0  0.47966597130010974  0.4390120460146421  0.5218678314670097  Uiso  ?  Ce
Ce1  1.0  0.45837206506843126  0.409276041391432  0.47807335998281325  Uiso  ?  Ce
Ce1  1.0  0.4539929428781655  0.3892393110118694  0.5351357785449672  Uiso  ?  Ce
Ce1  1.0  0.5016813635307317  0.3911180169034622  0.5042661929911088  Uiso  ?  Ce
O1  1.0  0.473797765802712  0.40604060976659795  0.5083511357667811  Uiso  ?  O
O1  1.0  0.48636407610562526  0.39130807278948015  0.4742595024591587  Uiso  ?  O
O1  1.0  0.43644226421995325  0.3909227897850324  0.5038220993384289  Uiso  ?  O
Ce1  1.0  0.5037389275068307  0.41311012113153095  0.45266814908411285  Uiso  ?  Ce
O1  1.0  0.32956300886979556  0.44126483034945413  0.749231317796874  Uiso  ?  O
O1  1.0  0.28318354332517975  0.45687090262853913  0.7256883367267944  Uiso  ?  O
O1  1.0  0.29267111867907575  0.4275595349417607  0.7452574188234234  Uiso  ?  O
Ce1  1.0  0.3112556209278043  0.464270418377421  0.6729970532983819  Uiso  ?  Ce
Ce1  1.0  0.3095355856025584  0.4456043582701676  0.7258641493658397  Uiso  ?  Ce
Ce1  1.0  0.35606678843195916  0.44528930555266405  0.6957146029948853  Uiso  ?  Ce
O1  1.0  0.3285438205677204  0.45973702674317124  0.6989452857622975  Uiso  ?  O
O1  1.0  0.33874491122043177  0.4287324239138738  0.7189047294119304  Uiso  ?  O
O1  1.0  0.3407767469190537  0.4466679449679728  0.6656230613274331  Uiso  ?  O
O1  1.0  0.35368544729828333  0.4134461328845911  0.6853745053000795  Uiso  ?  O
O1  1.0  0.29465784852130344  0.4456870435132399  0.6961165724391672  Uiso  ?  O
O1  1.0  0.304123265739919  0.41031553698564543  0.7117262329655452  Uiso  ?  O
O1  1.0  0.3059789588906044  0.43276425058919676  0.6605632737266696  Uiso  ?  O
O1  1.0  0.31715127771914636  0.3997520351372725  0.6791196325229455  Uiso  ?  O
Ce1  1.0  0.3600680278238627  0.46434797214798224  0.6400979768331542  Uiso  ?  Ce
Ce1  1.0  0.3374414614677576  0.43410912477576435  0.6038316494343665  Uiso  ?  Ce
Ce1  1.0  0.33394774977489794  0.4163010858408146  0.6539205878053982  Uiso  ?  Ce
Ce1  1.0  0.3851381029283175  0.4162241038580902  0.626237885116858  Uiso  ?  Ce
O1  1.0  0.3550470917062346  0.4334499797203874  0.6334119100331892  Uiso  ?  O
O1  1.0  0.3641631026944282  0.3969128187558893  0.6485178349668047  Uiso  ?  O
O1  1.0  0.3641329882413901  0.41823262978805803  0.5975370423397556  Uiso  ?  O
O1  1.0  0.31802869793923577  0.4174022041971248  0.6256333734181359  Uiso  ?  O
O1  1.0  0.32986574056203  0.4005763336771168  0.5870545853466841  Uiso  ?  O
Ce1  1.0  0.3831806415131889  0.4310710468503027  0.5756152802183863  Uiso  ?  Ce
Ce1  1.0  0.36153718652388106  0.4051265271082294  0.5361406710258015  Uiso  ?  Ce
Ce1  1.0  0.40707352644183253  0.3863494516794214  0.5593743705467228  Uiso  ?  Ce
O1  1.0  0.3784693453742175  0.4036032995871164  0.565442867801731  Uiso  ?  O
O1  1.0  0.39281036270279013  0.3899679592843476  0.528963830603494  Uiso  ?  O
O1  1.0  0.34360786803681387  0.38911633655998445  0.5571394118084751  Uiso  ?  O
Ce1  1.0  0.40767151800334306  0.40861484940602444  0.5066612352558106  Uiso  ?  Ce
Ce1  1.0  0.21599460954256752  0.4605227655029421  0.7266507891429125  Uiso  ?  Ce
Ce1  1.0  0.2615424728565018  0.44617952730269395  0.7491117029310476  Uiso  ?  Ce
O1  1.0  0.24542910613787453  0.4240616301367018  0.7737414999408341  Uiso  ?  O
O1  1.0  0.2455662779043862  0.44190496291692827  0.7203105222952635  Uiso  ?  O
O1  1.0  0.25910181997912834  0.4110670844157482  0.740195164377994  Uiso  ?  O
O1  1.0  0.2124617205908075  0.4320912156238878  0.7132894183931957  Uiso  ?  O
O1  1.0  0.22347113985175246  0.3980397628928556  0.7322099258814758  Uiso  ?  O
Ce1  1.0  0.2634810883167238  0.45964654446098324  0.7000508321412657  Uiso  ?  Ce
Ce1  1.0  0.24369119604256792  0.4326000458408076  0.658057704638029  Uiso  ?  Ce
Ce1  1.0  0.23869594852953047  0.4147485527871609  0.7098852419055072  Uiso  ?  Ce
Ce1  1.0  0.28702585894965577  0.4146432292030024  0.6810524116440015  Uiso  ?  Ce
O1  1.0  0.25923282121034097  0.4311703994906515  0.6869623965384326  Uiso  ?  O
O1  1.0  0.27121004523319425  0.39843514515633843  0.7032478209156433  Uiso  ?  O
O1  1.0  0.2710233177461953  0.4182695183623732  0.6528328469428174  Uiso  ?  O
O1  1.0  0.22441838026430377  0.41756335728597455  0.6835217111046008  Uiso  ?  O
O1  1.0  0.23513023034178998  0.40052284139980854  0.6464373243882646  Uiso  ?  O
Ce1  1.0  0.28909891281825684  0.43673046581247643  0.6319272597007808  Uiso  ?  Ce
Ce1  1.0  0.2659920511838157  0.4033824952871308  0.5888575269232503  Uiso  ?  Ce
O1  1.0  0.28383307099568306  0.4041788644299094  0.6180771006330096  Uiso  ?  O
O1  1.0  0.29744094012404876  0.3886690799124952  0.5863987245899908  Uiso  ?  O
Ce1  1.0  0.3130700407851838  0.4070337737553507  0.5611874930064056  Uiso  ?  Ce
Ce1  1.0  0.19576671517957484  0.4129281050441371  0.737615151596775  Uiso  ?  Ce
O1  1.0  0.17563708357179159  0.4130689730019785  0.7065051464777886  Uiso  ?  O
Ce1  1.0  0.1944445465806391  0.43020665816965126  0.6855577767279312  Uiso  ?  Ce
Ce1  1.0  0.17187242287074034  0.40599652356127963  0.6468992746703226  Uiso  ?  Ce
O1  1.0  0.1907771271652903  0.4004259438280348  0.6749376064241368  Uiso  ?  O
Ce1  1.0  0.21858094469818526  0.40308566296561477  0.618242037010941  Uiso  ?  Ce
O1  1.0  0.7300126728123063  0.46129058129522515  0.6243595028769809  Uiso  ?  O
O1  1.0  0.7386079845758997  0.4262387104021585  0.6391693780873497  Uiso  ?  O
Ce1  1.0  0.7586942004919816  0.46358902613239816  0.566390460474833  Uiso  ?  Ce
Ce1  1.0  0.7621740277498619  0.4437630663550638  0.6177397731175398  Uiso  ?  Ce
O1  1.0  0.7752760210693249  0.4623391488774618  0.5964447549867656  Uiso  ?  O
O1  1.0  0.7890237385184594  0.42557864261767736  0.6129962336900487  Uiso  ?  O
O1  1.0  0.7899160270839108  0.44614028212168283  0.5638001654082933  Uiso  ?  O
O1  1.0  0.740638865516668  0.4442782399782542  0.5883452377747795  Uiso  ?  O
O1  1.0  0.7510706025345122  0.41337950064694545  0.6091981641280758  Uiso  ?  O
O1  1.0  0.7543242565411586  0.42963606852990655  0.5570608411482851  Uiso  ?  O
O1  1.0  0.7658708039646892  0.40134258583534915  0.5720713075314533  Uiso  ?  O
Ce1  1.0  0.7833019588788299  0.43244120687636406  0.49745038693314586  Uiso  ?  Ce
Ce1  1.0  0.7831243764456985  0.4145954621751581  0.5515180798067312  Uiso  ?  Ce
O1  1.0  0.7669389882404785  0.4168129183758906  0.5200460972099702  Uiso  ?  O
O1  1.0  0.7774890562509995  0.4014773096673585  0.4870637836971034  Uiso  ?  O
O1  1.0  0.7893114551615197  0.3881686258298697  0.45284271434482476  Uiso  ?  O
O1  1.0  0.644598730034019  0.4255907046758572  0.6950204720254857  Uiso  ?  O
Ce1  1.0  0.6662825279594857  0.4570309493599376  0.6209435182027209  Uiso  ?  Ce
Ce1  1.0  0.6630961300482666  0.44079611655302486  0.6751473644853023  Uiso  ?  Ce
Ce1  1.0  0.7080201694935815  0.4433850934698131  0.6462292652758749  Uiso  ?  Ce
O1  1.0  0.6842928434014673  0.45886506060387744  0.6533733184859656  Uiso  ?  O
O1  1.0  0.6925392395987076  0.42568245066813765  0.6686203342668268  Uiso  ?  O
O1  1.0  0.694225944745867  0.44398572638364064  0.6152412844162743  Uiso  ?  O
O1  1.0  0.7057768412772699  0.4111083728679943  0.636068703920321  Uiso  ?  O
O1  1.0  0.6474275368025406  0.44503043639219764  0.6438893298549179  Uiso  ?  O
O1  1.0  0.6600016119180839  0.4104305733798896  0.6618428511472617  Uiso  ?  O
O1  1.0  0.6598534537237032  0.4310143346718681  0.6111759953367734  Uiso  ?  O
O1  1.0  0.6715694291368801  0.39373552414218344  0.6297247703487141  Uiso  ?  O
Ce1  1.0  0.7104706733857562  0.46140685715210383  0.5931746292004327  Uiso  ?  Ce
Ce1  1.0  0.6878086819174278  0.43397319350295377  0.555213207222109  Uiso  ?  Ce
Ce1  1.0  0.6909146311677306  0.41202493949008895  0.6068929988056667  Uiso  ?  Ce
Ce1  1.0  0.7349227660306943  0.41442903719011376  0.5747784798276907  Uiso  ?  Ce
O1  1.0  0.7061357381757957  0.43052453232156473  0.5835578768394718  Uiso  ?  O
O1  1.0  0.7179846061491182  0.40001939391738195  0.6003106526605065  Uiso  ?  O
O1  1.0  0.7177769828954829  0.41472564354664954  0.548661327558635  Uiso  ?  O
O1  1.0  0.6690485296390162  0.4158263841761493  0.5744760343412315  Uiso  ?  O
O1  1.0  0.6824119242242774  0.3988131848665811  0.5423993829879389  Uiso  ?  O
Ce1  1.0  0.7345452883237871  0.4315214132895878  0.5273325971166858  Uiso  ?  Ce
Ce1  1.0  0.7135670683677239  0.40331062969183423  0.4854420855706576  Uiso  ?  Ce
O1  1.0  0.7301243327009626  0.40315059895347544  0.5109317673099533  Uiso  ?  O
Ce1  1.0  0.763099012552447  0.4048344268073665  0.4540215243140288  Uiso  ?  Ce
O1  1.0  0.5507396073100045  0.4207916924502612  0.7502937212111923  Uiso  ?  O
Ce1  1.0  0.5709062034046392  0.4575368569963928  0.6783754701465279  Uiso  ?  Ce
Ce1  1.0  0.567813742636267  0.44238581910991326  0.7297792368196996  Uiso  ?  Ce
Ce1  1.0  0.6156931986055039  0.4392572171728346  0.701194076800863  Uiso  ?  Ce
O1  1.0  0.598006704751869  0.4239798608305983  0.7250047991321925  Uiso  ?  O
O1  1.0  0.5998986529718582  0.44289133087714017  0.6706481299320444  Uiso  ?  O
O1  1.0  0.6088570792534174  0.40974396328223023  0.6902100926041519  Uiso  ?  O
O1  1.0  0.5518304683514749  0.44394287283184813  0.6997556192077362  Uiso  ?  O
O1  1.0  0.5602287380361877  0.40798457201388677  0.7173446116733522  Uiso  ?  O
O1  1.0  0.5635707212064285  0.4268852131409859  0.6674230475331594  Uiso  ?  O
O1  1.0  0.5756806885388822  0.3952294075884474  0.6817005372626994  Uiso  ?  O
Ce1  1.0  0.6166694610574355  0.46066283388418827  0.6493022929258496  Uiso  ?  Ce
Ce1  1.0  0.5921682884144085  0.4302354742039953  0.6087988133269299  Uiso  ?  Ce
Ce1  1.0  0.5921881565653864  0.41283598326625165  0.6585320634150185  Uiso  ?  Ce
Ce1  1.0  0.6403814002498031  0.4110741515278105  0.630499782561024  Uiso  ?  Ce
O1  1.0  0.6118112554479485  0.43022024881811066  0.637327601756479  Uiso  ?  O
O1  1.0  0.6221943295236148  0.3987515555469243  0.657608305236727  Uiso  ?  O
O1  1.0  0.624378563202164  0.4174412991772716  0.6044391317093506  Uiso  ?  O
O1  1.0  0.5759538422086447  0.41477970048977625  0.6319860328112068  Uiso  ?  O
O1  1.0  0.5917501565786656  0.39886852350192425  0.5977990214840446  Uiso  ?  O
Ce1  1.0  0.6399744307109997  0.42931294837930656  0.5829038459957354  Uiso  ?  Ce
Ce1  1.0  0.6202636330632902  0.40473035271586705  0.5378112164990381  Uiso  ?  Ce
O1  1.0  0.6354406331914526  0.40235759617451416  0.5684794407954469  Uiso  ?  O
Ce1  1.0  0.6680953361508023  0.4049464990919745  0.5126693576785231  Uiso  ?  Ce
O1  1.0  0.5022681206134296  0.42041163912243124  0.7782787617841466  Uiso  ?  O
O1  1.0  0.5058145490091569  0.44273776848720264  0.7290714761083306  Uiso  ?  O
O1  1.0  0.5159659131649513  0.4085601075906962  0.7439543184213757  Uiso  ?  O
O1  1.0  0.4548742413855762  0.43957925821831473  0.756817027970126  Uiso  ?  O
O1  1.0  0.4644701696388611  0.40674755301607235  0.7723543411412074  Uiso  ?  O
O1  1.0  0.4699708096906942  0.4259298644077492  0.722328695797366  Uiso  ?  O
O1  1.0  0.480720219113533  0.39433550270439405  0.7384750251312171  Uiso  ?  O
Ce1  1.0  0.5226972165308471  0.45977669594861476  0.7055677795874866  Uiso  ?  Ce
Ce1  1.0  0.49710063946310157  0.4278469489248048  0.6655424246734943  Uiso  ?  Ce
Ce1  1.0  0.49825300824157887  0.40888737242203416  0.7149816157785618  Uiso  ?  Ce
Ce1  1.0  0.5439302259962351  0.4114645997971127  0.687145722889256  Uiso  ?  Ce
O1  1.0  0.5193638061626569  0.42609149533336704  0.6950987229845761  Uiso  ?  O
O1  1.0  0.5277179309289299  0.39319061969465424  0.7138853083766232  Uiso  ?  O
O1  1.0  0.5296615004549691  0.4138546267461428  0.6602809334256337  Uiso  ?  O
O1  1.0  0.4830415589698267  0.4128957655582272  0.687746687950076  Uiso  ?  O
O1  1.0  0.493639942749811  0.3978242602378838  0.6517944924335509  Uiso  ?  O
Ce1  1.0  0.5462416882849646  0.4286519466354677  0.6356952372736102  Uiso  ?  Ce
Ce1  1.0  0.5224990489747838  0.3994122166245371  0.59458495167773  Uiso  ?  Ce
O1  1.0  0.5404118019211351  0.3995809969509559  0.6219838729624058  Uiso  ?  O
Ce1  1.0  0.5705583190501314  0.40077796581983666  0.5696060424378786  Uiso  ?  Ce
O1  1.0  0.4203480446275611  0.40651028646665116  0.8017933229350521  Uiso  ?  O
O1  1.0  0.3737056711850227  0.4054824724375671  0.8265246269289191  Uiso  ?  O
O1  1.0  0.37309954248900873  0.4254001918272822  0.7751752324188437  Uiso  ?  O
O1  1.0  0.384646532272324  0.39130585540396856  0.7927052253869034  Uiso  ?  O
Ce1  1.0  0.40679781128469467  0.4278869736793067  0.7203006005391315  Uiso  ?  Ce
Ce1  1.0  0.4033247453174397  0.40831141093830237  0.7711041306325924  Uiso  ?  Ce
Ce1  1.0  0.4497206302343436  0.4107078623068156  0.745054030005536  Uiso  ?  Ce
O1  1.0  0.42136614541866446  0.42546592070196604  0.7476762091661957  Uiso  ?  O
O1  1.0  0.4336734629321823  0.3903401842177349  0.765258227817975  Uiso  ?  O
O1  1.0  0.4337149137628609  0.410828494258582  0.714768549682018  Uiso  ?  O
O1  1.0  0.38445448138192834  0.4098500309683902  0.7419313670250139  Uiso  ?  O
O1  1.0  0.398697121978968  0.39325673836638325  0.7050803410928067  Uiso  ?  O
Ce1  1.0  0.45189170015324087  0.4317329194561018  0.6932125620862605  Uiso  ?  Ce
Ce1  1.0  0.42925095610658276  0.39904596363414907  0.6481408926013463  Uiso  ?  Ce
O1  1.0  0.44596655053084305  0.395940974953106  0.6817101327950262  Uiso  ?  O
Ce1  1.0  0.4755722830741468  0.4004460385201354  0.6219082788489424  Uiso  ?  Ce
Ce1  1.0  0.30997007789520653  0.42541984875165345  0.7742448692809416  Uiso  ?  Ce
Ce1  1.0  0.30690554781132345  0.4075026342538734  0.827024406096691  Uiso  ?  Ce
Ce1  1.0  0.3549149512441784  0.4075480914042508  0.7988562136819058  Uiso  ?  Ce
O1  1.0  0.32605189163247605  0.4244029784648753  0.8018606033549417  Uiso  ?  O
O1  1.0  0.33659782596988624  0.39113053540787635  0.8233146701128318  Uiso  ?  O
O1  1.0  0.3364209055612401  0.41036663774717635  0.7698701592408775  Uiso  ?  O
O1  1.0  0.29284240125957084  0.4083371329175946  0.795142035630904  Uiso  ?  O
O1  1.0  0.30373421115946786  0.3952015400309012  0.763918310132925  Uiso  ?  O
Ce1  1.0  0.3570696286017921  0.42572480702644033  0.746264644926578  Uiso  ?  Ce
Ce1  1.0  0.333271091342715  0.396175244271975  0.7070180756286341  Uiso  ?  Ce
O1  1.0  0.3512312554192482  0.3953653317043552  0.7378351494114832  Uiso  ?  O
Ce1  1.0  0.3805145193631276  0.39824839263055534  0.6785318172759848  Uiso  ?  Ce
Ce1  1.0  0.24015494161193673  0.3955672811161214  0.7610779089395128  Uiso  ?  Ce
O1  1.0  0.2555839387981519  0.391668234265303  0.7927256020385255  Uiso  ?  O
Ce1  1.0  0.28465725288202715  0.3963412223964127  0.7336676515481537  Uiso  ?  Ce
O1  1.0  0.7509679810935506  0.39322621206562897  0.6584720188272425  Uiso  ?  O
Ce1  1.0  0.7785909854719474  0.3962606326121796  0.6005180388243682  Uiso  ?  Ce
O1  1.0  0.6565781417200387  0.39336352339020747  0.7136625244205053  Uiso  ?  O
Ce1  1.0  0.6853415829112289  0.3946704951331787  0.6567931628690202  Uiso  ?  Ce
O1  1.0  0.7049007475960328  0.395152340061315  0.6872888301661587  Uiso  ?  O
Ce1  1.0  0.7327300641005966  0.3932997139697983  0.6283434508965101  Uiso  ?  Ce
O1  1.0  0.5507146405303783  0.40562509206608677  0.803276729253974  Uiso  ?  O
O1  1.0  0.5648949996005148  0.39022738474346047  0.7704830712771675  Uiso  ?  O
Ce1  1.0  0.5912195447736571  0.3930697220994183  0.7133691908997956  Uiso  ?  Ce
O1  1.0  0.6086221525453873  0.3906517442909352  0.7419717099484081  Uiso  ?  O
Ce1  1.0  0.6396476207923639  0.3925737562402146  0.6830190827101376  Uiso  ?  Ce
O1  1.0  0.46949831853053475  0.3871427718757399  0.8255567861125233  Uiso  ?  O
Ce1  1.0  0.49740328489486946  0.39074199609076865  0.7668961150733663  Uiso  ?  Ce
O1  1.0  0.5148770457794172  0.3919650845853625  0.7984574469704501  Uiso  ?  O
Ce1  1.0  0.5416931353233851  0.3898104761671318  0.7397459166969612  Uiso  ?  Ce
Ce1  1.0  0.40311600459255553  0.3890301109611229  0.8216739208390238  Uiso  ?  Ce
Ce1  1.0  0.44931679711647876  0.39093099658741637  0.794347621872575  Uiso  ?  Ce
Ce1  1.0  0.3555137216658274  0.3883557067595771  0.8489533133012436  Uiso  ?  Ce
O1  1.0  0.5036734340698337  0.3771184759797029  0.17834959309833573  Uiso  ?  O
O1  1.0  0.453605979678128  0.3779483003192369  0.20617129909568685  Uiso  ?  O
O1  1.0  0.4068805407576937  0.3752587099707569  0.23005489190967982  Uiso  ?  O
O1  1.0  0.4222209827823003  0.3596574287549627  0.19942962051352625  Uiso  ?  O
Ce1  1.0  0.43943346804351324  0.37699786657163376  0.17525029670078576  Uiso  ?  Ce
O1  1.0  0.4679119706479144  0.3630275630830375  0.16792025904973978  Uiso  ?  O
O1  1.0  0.4326621155220132  0.34611731327116374  0.1655161338999743  Uiso  ?  O
O1  1.0  0.30018203588569736  0.3855225391736463  0.323401264044326  Uiso  ?  O
O1  1.0  0.3500958267201923  0.3886398612439058  0.2934887353720528  Uiso  ?  O
O1  1.0  0.36207720963381984  0.3759522092282649  0.2600510714681009  Uiso  ?  O
O1  1.0  0.31641571901046595  0.3731048285823405  0.2881595001987422  Uiso  ?  O
O1  1.0  0.32533208457967294  0.35837145865305736  0.25406301817989724  Uiso  ?  O
Ce1  1.0  0.3436396833103804  0.376175061942881  0.23083958047177788  Uiso  ?  Ce
Ce1  1.0  0.3925954404072379  0.3771045302252609  0.203739811299099  Uiso  ?  Ce
O1  1.0  0.3731137329997984  0.35953908199415513  0.22367750304558912  Uiso  ?  O
O1  1.0  0.373780156558287  0.3797649656964073  0.1737843793485109  Uiso  ?  O
O1  1.0  0.38471800211679297  0.3458578289988931  0.19435574269922756  Uiso  ?  O
O1  1.0  0.3285177637564133  0.37722172226507455  0.200959009880002  Uiso  ?  O
O1  1.0  0.3376840517930638  0.34558966725986223  0.2194458289568362  Uiso  ?  O
O1  1.0  0.3399717365986438  0.36210604025051324  0.16649878441944566  Uiso  ?  O
O1  1.0  0.34929480122347545  0.3320932383427901  0.1837103402011177  Uiso  ?  O
Ce1  1.0  0.3713798734202974  0.3471367716490458  0.16424997799285382  Uiso  ?  Ce
O1  1.0  0.39936803618641603  0.33279566708458064  0.15682626625777077  Uiso  ?  O
O1  1.0  0.20590012421951306  0.3832719234019742  0.37571066803260206  Uiso  ?  O
O1  1.0  0.2535478513132927  0.383688070401269  0.34988524225996936  Uiso  ?  O
O1  1.0  0.26714847551255577  0.3700697982331016  0.31382118632867184  Uiso  ?  O
O1  1.0  0.21559920623470472  0.36994678072771203  0.34277787391421766  Uiso  ?  O
O1  1.0  0.2314346889251634  0.35686903041889073  0.307131068458911  Uiso  ?  O
Ce1  1.0  0.24582989080463807  0.37165003771848043  0.28820292814912674  Uiso  ?  Ce
Ce1  1.0  0.29817764968832877  0.37414444601822133  0.2569183928240744  Uiso  ?  Ce
O1  1.0  0.27831949919219023  0.3578197163681475  0.281707658933254  Uiso  ?  O
O1  1.0  0.27886072158072894  0.37756536988092093  0.22861628567279124  Uiso  ?  O
O1  1.0  0.29047950237988873  0.3422645844337089  0.24870450519907072  Uiso  ?  O
O1  1.0  0.23290257040163187  0.37590789381361034  0.25695259947897636  Uiso  ?  O
O1  1.0  0.24449583203001235  0.3431262836416346  0.27181873939136536  Uiso  ?  O
O1  1.0  0.24333226555841647  0.3591363369829154  0.2220186759979435  Uiso  ?  O
O1  1.0  0.2538366259365813  0.32921379567978176  0.24088906583932965  Uiso  ?  O
Ce1  1.0  0.2755311988206644  0.36550403441644713  0.16807599442092722  Uiso  ?  Ce
Ce1  1.0  0.2752061613133214  0.3450571283646492  0.21696925606377418  Uiso  ?  Ce
Ce1  1.0  0.32075397473895684  0.34410324231395184  0.18995429947509088  Uiso  ?  Ce
O1  1.0  0.2921512741182939  0.361659396613559  0.1948156213193514  Uiso  ?  O
O1  1.0  0.30101352600975534  0.32896773846319743  0.21376101550537124  Uiso  ?  O
O1  1.0  0.303518839227231  0.3505594104252965  0.16342010609745677  Uiso  ?  O
O1  1.0  0.31866884066923684  0.31363667399177475  0.17600778225454336  Uiso  ?  O
O1  1.0  0.2596331475176219  0.348375242570359  0.18908028444183853  Uiso  ?  O
O1  1.0  0.2669733896953625  0.3136252798612257  0.20728097275739504  Uiso  ?  O
O1  1.0  0.15893468802845725  0.3857326892954057  0.40247319616866917  Uiso  ?  O
O1  1.0  0.16970469835593163  0.3697213494445699  0.371699348912784  Uiso  ?  O
Ce1  1.0  0.15418583754121293  0.3733132113950909  0.34063269528694085  Uiso  ?  Ce
Ce1  1.0  0.20351067807589077  0.37611435224421147  0.3163450594702869  Uiso  ?  Ce
O1  1.0  0.18480182778996224  0.35643678600131495  0.3378368168304881  Uiso  ?  O
O1  1.0  0.18386059094045798  0.3745519141260176  0.284679797337555  Uiso  ?  O
O1  1.0  0.19585300481261297  0.3421731333091695  0.30224402389138955  Uiso  ?  O
O1  1.0  0.14734120816216967  0.3417362573375054  0.32904717292575036  Uiso  ?  O
O1  1.0  0.15000912464645735  0.35774847428837336  0.2775585120452647  Uiso  ?  O
O1  1.0  0.16252366703052742  0.32453426458331075  0.2981177239583429  Uiso  ?  O
Ce1  1.0  0.17833288354900265  0.34444810921233754  0.27418405888926933  Uiso  ?  Ce
Ce1  1.0  0.22919346549570538  0.3453293182637329  0.2456820832710957  Uiso  ?  Ce
O1  1.0  0.19991878237599917  0.3598343404912957  0.25060036443993106  Uiso  ?  O
O1  1.0  0.2059885535869733  0.32733304709355177  0.26835461749469836  Uiso  ?  O
O1  1.0  0.20840494431997753  0.3478986188613549  0.21517254212713394  Uiso  ?  O
O1  1.0  0.21952313420120892  0.3150412969907565  0.23486812245736305  Uiso  ?  O
O1  1.0  0.17508490453881617  0.3116106341495543  0.26252247421714386  Uiso  ?  O
Ce1  1.0  0.22761509010923608  0.3632813112635234  0.1958167234284254  Uiso  ?  Ce
Ce1  1.0  0.20289288626631732  0.3150796944024843  0.20438889102632088  Uiso  ?  Ce
Ce1  1.0  0.2510172716260001  0.31533879925672126  0.17928724278842495  Uiso  ?  Ce
O1  1.0  0.22405601126930771  0.33138057469906135  0.18254089544498164  Uiso  ?  O
O1  1.0  0.7510546323909784  0.3850292075542361  0.2173316218574378  Uiso  ?  O
O1  1.0  0.7968675978675694  0.3874054957641873  0.19139516488143155  Uiso  ?  O
O1  1.0  0.7608569962807159  0.3724951967934572  0.1810860911666401  Uiso  ?  O
O1  1.0  0.651397273914643  0.3850656789686071  0.2716096111499585  Uiso  ?  O
O1  1.0  0.6994897306611941  0.3842341586258057  0.24492819044528277  Uiso  ?  O
O1  1.0  0.7143601740426241  0.3700876210434293  0.21085145164672386  Uiso  ?  O
O1  1.0  0.6675023750759671  0.3716903947673324  0.2390111196239047  Uiso  ?  O
O1  1.0  0.6808619536523499  0.3569626904387179  0.20310212939079628  Uiso  ?  O
Ce1  1.0  0.6957487030345088  0.3703560063722796  0.1799835813379607  Uiso  ?  Ce
O1  1.0  0.7265881319543023  0.3585630405355688  0.17689478756207574  Uiso  ?  O
O1  1.0  0.6941628825734425  0.34201427770115034  0.17234341329063407  Uiso  ?  O
O1  1.0  0.558844217431285  0.3813186575241944  0.3288240685975258  Uiso  ?  O
O1  1.0  0.6051375646722045  0.38595748235662186  0.298170920733054  Uiso  ?  O
O1  1.0  0.6188814818971352  0.37057448817992705  0.2643905084903353  Uiso  ?  O
O1  1.0  0.5710113820475521  0.3709508045972504  0.2947947642807319  Uiso  ?  O
O1  1.0  0.5733388055219852  0.3872191721350974  0.2422160344383254  Uiso  ?  O
O1  1.0  0.5810939829857283  0.3548738276396857  0.25764904611665534  Uiso  ?  O
Ce1  1.0  0.6038433293086038  0.3716996006372355  0.23455869039231614  Uiso  ?  Ce
Ce1  1.0  0.6494906142895305  0.37187012225134647  0.20725068522779858  Uiso  ?  Ce
O1  1.0  0.6312935420115581  0.3541382608684911  0.2303894368600607  Uiso  ?  O
O1  1.0  0.6315266025500638  0.3723979401150275  0.17994273308591102  Uiso  ?  O
O1  1.0  0.6415158784409813  0.3436177614813341  0.19720526439499045  Uiso  ?  O
O1  1.0  0.5853100546311036  0.3751761810457704  0.20831586581129463  Uiso  ?  O
O1  1.0  0.5920385998242734  0.33995223357357746  0.22597953771455503  Uiso  ?  O
O1  1.0  0.5970511083357636  0.35962944462810087  0.17701067081422728  Uiso  ?  O
O1  1.0  0.6074295927455612  0.328264194239408  0.1901572262898783  Uiso  ?  O
Ce1  1.0  0.6287648825499471  0.3434954206467307  0.16806167637024694  Uiso  ?  Ce
O1  1.0  0.6567510183614077  0.3261350747403072  0.1677707521603639  Uiso  ?  O
O1  1.0  0.6202050525238485  0.3123650855504384  0.15907507808813734  Uiso  ?  O
O1  1.0  0.4618456357974829  0.38411801686017616  0.3801508075315569  Uiso  ?  O
O1  1.0  0.5088616657498654  0.38192209509229974  0.3509737404056509  Uiso  ?  O
O1  1.0  0.5254263790801702  0.36958582301129084  0.3213466990593155  Uiso  ?  O
O1  1.0  0.47945186277986024  0.36836325208110654  0.34780691338691416  Uiso  ?  O
O1  1.0  0.4771686691286498  0.3871326479013767  0.29766742863602774  Uiso  ?  O
O1  1.0  0.4857424027242834  0.35153211265763257  0.31586917022663447  Uiso  ?  O
Ce1  1.0  0.5078785762162438  0.36959594374488197  0.2915100173122145  Uiso  ?  Ce
Ce1  1.0  0.5547199811852366  0.3700692421968453  0.2672331643371202  Uiso  ?  Ce
O1  1.0  0.5258190911217746  0.38464166542465356  0.2690275540361582  Uiso  ?  O
O1  1.0  0.5371091606355374  0.35351419378410726  0.2842070508826281  Uiso  ?  O
O1  1.0  0.5390770337800718  0.3721726606881912  0.23557712545940826  Uiso  ?  O
O1  1.0  0.5506903523025575  0.339354807247644  0.2524853144516355  Uiso  ?  O
O1  1.0  0.4906940760645196  0.37260979681705636  0.2655609378067509  Uiso  ?  O
O1  1.0  0.5017774110705676  0.3398336122640905  0.27830602358208106  Uiso  ?  O
O1  1.0  0.5009724442813552  0.3572228068576216  0.2297448355477073  Uiso  ?  O
O1  1.0  0.5123860218759718  0.3271855766484146  0.2453947888441554  Uiso  ?  O
Ce1  1.0  0.5330425682541653  0.36234283714414456  0.17131781879971378  Uiso  ?  Ce
Ce1  1.0  0.5343651750909999  0.3441474543548058  0.2210939804282467  Uiso  ?  Ce
Ce1  1.0  0.5773745638024157  0.3421896782226217  0.19686293203884414  Uiso  ?  Ce
O1  1.0  0.5501303935401495  0.35808276619166185  0.20159361538346476  Uiso  ?  O
O1  1.0  0.5612862262898001  0.32461705866024443  0.21986172060718107  Uiso  ?  O
O1  1.0  0.5631061258241035  0.34613746927012196  0.16595661633444936  Uiso  ?  O
O1  1.0  0.5159146549178473  0.3427385511967829  0.19347516095467862  Uiso  ?  O
O1  1.0  0.5240341922849407  0.33024246427239484  0.16042858320811143  Uiso  ?  O
Ce1  1.0  0.5571616753293105  0.315410700200642  0.15640006140306376  Uiso  ?  Ce
O1  1.0  0.3682660284486911  0.3802869820936687  0.4371042233008441  Uiso  ?  O
O1  1.0  0.4164269134997316  0.38007238669468224  0.4099976404309064  Uiso  ?  O
O1  1.0  0.42962719510322694  0.3646310600792519  0.37992917438996926  Uiso  ?  O
O1  1.0  0.38315133439908006  0.36689793566122886  0.4039421640082289  Uiso  ?  O
O1  1.0  0.3836203245986153  0.38492643262615833  0.35063990100331577  Uiso  ?  O
O1  1.0  0.3935597059778508  0.35097500444139174  0.3700141920486798  Uiso  ?  O
Ce1  1.0  0.41528283606147637  0.3879105202151436  0.29777955008371493  Uiso  ?  Ce
Ce1  1.0  0.4111590399559963  0.3674653726637854  0.34480090333457386  Uiso  ?  Ce
Ce1  1.0  0.46135479875995783  0.36780136862122004  0.31758785445705623  Uiso  ?  Ce
O1  1.0  0.4298355436840767  0.384818799757288  0.32433383787026865  Uiso  ?  O
O1  1.0  0.44027334772831644  0.3518707610713352  0.34227057869712424  Uiso  ?  O
O1  1.0  0.4404348561534928  0.36909599098849327  0.28850224499955807  Uiso  ?  O
O1  1.0  0.45417124421266175  0.3377779350245835  0.30940790302724086  Uiso  ?  O
O1  1.0  0.3938112846636363  0.37047156963610206  0.31917535532610003  Uiso  ?  O
O1  1.0  0.40422645017187436  0.33782842984371936  0.3366047390046217  Uiso  ?  O
O1  1.0  0.4057700834092727  0.3565215841276083  0.282733442570524  Uiso  ?  O
O1  1.0  0.4191573757312201  0.3244963722516966  0.3016579315749017  Uiso  ?  O
Ce1  1.0  0.45878833380102957  0.38741117832978306  0.2683382872419751  Uiso  ?  Ce
Ce1  1.0  0.43717048577124007  0.35806599216968604  0.22807624248692515  Uiso  ?  Ce
Ce1  1.0  0.43481146082900735  0.3394597240194133  0.27695150901071447  Uiso  ?  Ce
Ce1  1.0  0.48397458298939106  0.34107270052220456  0.24941730763590375  Uiso  ?  Ce
O1  1.0  0.4561271060469159  0.3578086628802334  0.25484425251816756  Uiso  ?  O
O1  1.0  0.46432107662403943  0.32493498419603994  0.2741760456524363  Uiso  ?  O
O1  1.0  0.46722959808106684  0.3415471050252222  0.22499719563096388  Uiso  ?  O
O1  1.0  0.42140985674476755  0.3398420878795817  0.250608088502715  Uiso  ?  O
O1  1.0  0.43351779172210914  0.32892979741012796  0.21728405695010833  Uiso  ?  O
Ce1  1.0  0.4861269719486004  0.35950736834312497  0.1982084715988931  Uiso  ?  Ce
Ce1  1.0  0.4634942484066966  0.33142714631133235  0.15943053793719317  Uiso  ?  Ce
Ce1  1.0  0.5076687912722169  0.31490024952675755  0.18493949442659285  Uiso  ?  Ce
O1  1.0  0.477875591518271  0.3301501809658478  0.1855311960102499  Uiso  ?  O
O1  1.0  0.4449637099533245  0.3153424329207914  0.18571684735196792  Uiso  ?  O
O1  1.0  0.27458975084493104  0.3743968223648694  0.4940969305631587  Uiso  ?  O
O1  1.0  0.3193239753226552  0.38057788586195573  0.46230754608860236  Uiso  ?  O
O1  1.0  0.33669068313850753  0.36313249319386476  0.4299193105714782  Uiso  ?  O
O1  1.0  0.28825903363165195  0.3667169366441365  0.45720462570559145  Uiso  ?  O
O1  1.0  0.2874932978539984  0.3829863804971636  0.4048390970327313  Uiso  ?  O
O1  1.0  0.2999159404858977  0.34889689458060125  0.42383248381722743  Uiso  ?  O
Ce1  1.0  0.317316925150318  0.38572569213294217  0.34905465583861334  Uiso  ?  Ce
Ce1  1.0  0.3187623630773864  0.36534669926475366  0.40213240872182016  Uiso  ?  Ce
Ce1  1.0  0.36491761710805265  0.3660248418489952  0.37356510120124653  Uiso  ?  Ce
O1  1.0  0.33201020220344735  0.382441002268753  0.3760100650516572  Uiso  ?  O
O1  1.0  0.3478238275711328  0.351358155379009  0.3945110967417673  Uiso  ?  O
O1  1.0  0.3494953989687962  0.3694143459920091  0.3468114760480548  Uiso  ?  O
O1  1.0  0.35791352190823517  0.3382995573650337  0.3632296789484862  Uiso  ?  O
O1  1.0  0.30069285238624066  0.36499773829346094  0.37315674447680186  Uiso  ?  O
O1  1.0  0.3089914331304252  0.3357041101214718  0.39124972022113397  Uiso  ?  O
O1  1.0  0.3130804506058212  0.35578018764769187  0.337472877844548  Uiso  ?  O
O1  1.0  0.3230096697020841  0.3221489901400266  0.35569381542229583  Uiso  ?  O
Ce1  1.0  0.3660822408743105  0.3877421519815152  0.32199472185620337  Uiso  ?  Ce
Ce1  1.0  0.3413874622842817  0.3556481395845462  0.2859256562061913  Uiso  ?  Ce
Ce1  1.0  0.34103373654596847  0.3381739082996019  0.33519141896081783  Uiso  ?  Ce
Ce1  1.0  0.38978666120301064  0.3401360879802758  0.30522786571089666  Uiso  ?  Ce
O1  1.0  0.35875581136058415  0.3544627283960239  0.3125506933869858  Uiso  ?  O
O1  1.0  0.3712551274917667  0.321812999196117  0.33030239494619745  Uiso  ?  O
O1  1.0  0.37192812522836005  0.3392892109351592  0.27551645260952806  Uiso  ?  O
O1  1.0  0.3258340978370639  0.3400087615317502  0.30501772701978946  Uiso  ?  O
O1  1.0  0.3363445912561631  0.3268123650216814  0.2700837266082226  Uiso  ?  O
Ce1  1.0  0.390801927103689  0.35777935145903705  0.25643056972050693  Uiso  ?  Ce
Ce1  1.0  0.3674849137807853  0.33014287377166734  0.2135142798830127  Uiso  ?  Ce
O1  1.0  0.38634201738186236  0.32759408862586586  0.24329996494618208  Uiso  ?  O
O1  1.0  0.40050227659469095  0.31446814195155914  0.20845219037957038  Uiso  ?  O
Ce1  1.0  0.4191243373937502  0.3319232623980841  0.18838910891217062  Uiso  ?  Ce
O1  1.0  0.17646476511841197  0.3772094935675693  0.5484014464082606  Uiso  ?  O
O1  1.0  0.22537597346028268  0.37538869519516127  0.520421819726292  Uiso  ?  O
O1  1.0  0.23870209490382185  0.36062494741123546  0.4877826988189396  Uiso  ?  O
O1  1.0  0.19037356819129453  0.361753227348236  0.5162098537523997  Uiso  ?  O
O1  1.0  0.19249121316326642  0.3815913958235202  0.4608834478127269  Uiso  ?  O
O1  1.0  0.2031651675171247  0.3490955743690676  0.4785085774037966  Uiso  ?  O
Ce1  1.0  0.2245374936083755  0.3808782224535695  0.4049367794276005  Uiso  ?  Ce
Ce1  1.0  0.22371888394934028  0.3654479701260237  0.45688253976034776  Uiso  ?  Ce
Ce1  1.0  0.2711013236431272  0.36729971245245396  0.4295596800164168  Uiso  ?  Ce
O1  1.0  0.23897011911610788  0.38166082620077063  0.43148463372588536  Uiso  ?  O
O1  1.0  0.25241953653465893  0.349370736416811  0.45161363133875937  Uiso  ?  O
O1  1.0  0.24965328662046923  0.36780334221288413  0.39942791034719843  Uiso  ?  O
O1  1.0  0.26252782261981467  0.33727352737054733  0.4192025869057018  Uiso  ?  O
O1  1.0  0.20324348350546576  0.3647260782570118  0.42823859444223805  Uiso  ?  O
O1  1.0  0.21416825792474842  0.33380504423058827  0.4449462377197342  Uiso  ?  O
O1  1.0  0.21768081958147398  0.3526677468206325  0.39278390558949916  Uiso  ?  O
O1  1.0  0.22898505946023817  0.31917994255272836  0.40963528165828456  Uiso  ?  O
Ce1  1.0  0.27167666601934504  0.3855482524212593  0.3770468918366039  Uiso  ?  Ce
Ce1  1.0  0.24520987242058337  0.354510097078584  0.338956123940335  Uiso  ?  Ce
Ce1  1.0  0.24496277643683803  0.3356909161564201  0.3882780150821947  Uiso  ?  Ce
Ce1  1.0  0.2934412030572847  0.3411699499820113  0.3639741463736771  Uiso  ?  Ce
O1  1.0  0.2642049963078326  0.35479841745500357  0.3683544388519612  Uiso  ?  O
O1  1.0  0.2757401716361373  0.3223220109561774  0.3838200271027325  Uiso  ?  O
O1  1.0  0.27575287054355097  0.3397449076794004  0.33384095980175993  Uiso  ?  O
O1  1.0  0.22961727809737884  0.33840619391711946  0.3605044724525965  Uiso  ?  O
O1  1.0  0.24192681608109912  0.3210411875596213  0.3258347222338878  Uiso  ?  O
Ce1  1.0  0.29314089805270743  0.3585418662398105  0.31001953786508885  Uiso  ?  Ce
Ce1  1.0  0.27278081442112  0.32747175350445085  0.27175862298373693  Uiso  ?  Ce
O1  1.0  0.2904554164327151  0.3269292855705778  0.3001344934976132  Uiso  ?  O
Ce1  1.0  0.319779930798678  0.33045427373971115  0.24249119514523318  Uiso  ?  Ce
Ce1  1.0  0.17508371904627923  0.36490351544871  0.4857326804456201  Uiso  ?  Ce
O1  1.0  0.14521384906167792  0.37916400243410864  0.4906436303802543  Uiso  ?  O
O1  1.0  0.15708398540952379  0.3463293883878098  0.5049105616650416  Uiso  ?  O
O1  1.0  0.1570413049546243  0.364342871276168  0.45410533628427047  Uiso  ?  O
O1  1.0  0.16718121255190893  0.3342856179020853  0.4743488161004251  Uiso  ?  O
Ce1  1.0  0.1775013979756291  0.3816978021657653  0.43428502897160554  Uiso  ?  Ce
Ce1  1.0  0.15201997055970867  0.35500776096262143  0.392981588680388  Uiso  ?  Ce
Ce1  1.0  0.1500907937578358  0.33564148511002717  0.4423873892095388  Uiso  ?  Ce
Ce1  1.0  0.19882171815363073  0.33683957367227496  0.4167921475075973  Uiso  ?  Ce
O1  1.0  0.17032877056854773  0.3497735218894481  0.4216815111319149  Uiso  ?  O
O1  1.0  0.1814729868038406  0.316617572129872  0.4389792439567105  Uiso  ?  O
O1  1.0  0.18124521488313464  0.3353745226158309  0.38520275491096057  Uiso  ?  O
O1  1.0  0.1463049470574012  0.3234436935845401  0.3806158347584671  Uiso  ?  O
Ce1  1.0  0.20137334633679113  0.35379702745225966  0.3654774294327488  Uiso  ?  Ce
Ce1  1.0  0.1767582829426155  0.32649612414661844  0.3226631291640078  Uiso  ?  Ce
O1  1.0  0.19442950420408764  0.32260399776312315  0.3544791260469556  Uiso  ?  O
Ce1  1.0  0.22564754950928498  0.32434987228522194  0.2976761220458103  Uiso  ?  Ce
O1  1.0  0.72060540714295  0.37735413791981076  0.39067028500707063  Uiso  ?  O
O1  1.0  0.767423558222912  0.3769199052831489  0.3631514132200707  Uiso  ?  O
O1  1.0  0.7831099877271235  0.36466763895424825  0.3267253788314936  Uiso  ?  O
O1  1.0  0.734131194869545  0.3630073319837923  0.3546955227100832  Uiso  ?  O
O1  1.0  0.7367544479099802  0.38155153418048116  0.3034055999655835  Uiso  ?  O
O1  1.0  0.7487726383402346  0.348509920024023  0.3194630805291749  Uiso  ?  O
Ce1  1.0  0.7679868291182493  0.3851289246486424  0.24364913749511152  Uiso  ?  Ce
Ce1  1.0  0.7654903540849718  0.36789089701200467  0.2996841061340952  Uiso  ?  Ce
O1  1.0  0.7821170360055901  0.38419174442909915  0.27463355150088464  Uiso  ?  O
O1  1.0  0.7947644976944649  0.3513587044611292  0.2941303632338596  Uiso  ?  O
O1  1.0  0.7961800067745745  0.3694200601770613  0.23968681477191503  Uiso  ?  O
O1  1.0  0.7467743422309518  0.3672918040210408  0.26812640808391414  Uiso  ?  O
O1  1.0  0.7595765000089325  0.33516069010795196  0.2878519499113072  Uiso  ?  O
O1  1.0  0.7614869192279509  0.3549611018986524  0.23441320917035122  Uiso  ?  O
O1  1.0  0.7710461634042426  0.32195181034875203  0.2508992285842528  Uiso  ?  O
Ce1  1.0  0.7911592611302217  0.35493250265482396  0.1772439075697694  Uiso  ?  Ce
Ce1  1.0  0.7904373036392174  0.3357915735756489  0.23223353044945205  Uiso  ?  Ce
O1  1.0  0.7730576670551346  0.33903638715205864  0.20051587276682104  Uiso  ?  O
O1  1.0  0.7847942761221331  0.32558892280743823  0.1652845911781064  Uiso  ?  O
O1  1.0  0.626013373670521  0.3775615924246194  0.44130637303784004  Uiso  ?  O
O1  1.0  0.6754864261702124  0.37770908238201917  0.4156561205770402  Uiso  ?  O
O1  1.0  0.6868340883533534  0.36131062707298905  0.38304009375279563  Uiso  ?  O
O1  1.0  0.6353454965012757  0.3622224663906943  0.409934055506221  Uiso  ?  O
O1  1.0  0.6427557798469088  0.38043824503094975  0.35805676961681143  Uiso  ?  O
O1  1.0  0.6527809681698686  0.346050208000765  0.3749634980256549  Uiso  ?  O
Ce1  1.0  0.6712436093158712  0.3815750883843478  0.3007261336967154  Uiso  ?  Ce
Ce1  1.0  0.6720819027301067  0.36487920389931544  0.3530842810863645  Uiso  ?  Ce
Ce1  1.0  0.7161256154508853  0.36531049059517257  0.32515969529947497  Uiso  ?  Ce
O1  1.0  0.6870538637037996  0.38241765454367094  0.3301788420799397  Uiso  ?  O
O1  1.0  0.6983237134001152  0.34959662330599656  0.3472766068069146  Uiso  ?  O
O1  1.0  0.6997862687243868  0.3666853276865075  0.2962807656779296  Uiso  ?  O
O1  1.0  0.713658774701539  0.3345682672826703  0.3156190127845242  Uiso  ?  O
O1  1.0  0.6521171410818555  0.368615076872223  0.32427817207633186  Uiso  ?  O
O1  1.0  0.662054376802609  0.33256303218562333  0.33973769653707425  Uiso  ?  O
O1  1.0  0.667033767938477  0.35251046672472114  0.29193028610882804  Uiso  ?  O
O1  1.0  0.6762594548465946  0.3200052697502072  0.309348448957633  Uiso  ?  O
Ce1  1.0  0.7168790167450199  0.38246298340196916  0.2740049146967332  Uiso  ?  Ce
Ce1  1.0  0.6950048495370148  0.35300567195550375  0.2329052088715155  Uiso  ?  Ce
Ce1  1.0  0.6934681377308208  0.33530453848567005  0.284205817140269  Uiso  ?  Ce
Ce1  1.0  0.7410171806278568  0.3375457108979939  0.25587690116213346  Uiso  ?  Ce
O1  1.0  0.7154655561583975  0.35294711702547976  0.263365343841619  Uiso  ?  O
O1  1.0  0.7213693257390079  0.3208506356959032  0.27811004064456324  Uiso  ?  O
O1  1.0  0.72403034885411  0.3380223492797366  0.23206700589118512  Uiso  ?  O
O1  1.0  0.6777166671145493  0.33932440315789075  0.2560320320287296  Uiso  ?  O
O1  1.0  0.6912126104443115  0.32574271014354667  0.22149984577030365  Uiso  ?  O
Ce1  1.0  0.7428920676064077  0.35346634818740613  0.20609406623136817  Uiso  ?  Ce
Ce1  1.0  0.7208554890752225  0.3246483975283132  0.16653040388857526  Uiso  ?  Ce
O1  1.0  0.737921934364411  0.3211253814421797  0.19662675745633051  Uiso  ?  O
O1  1.0  0.5336142594659368  0.37416125001935513  0.49690509972614416  Uiso  ?  O
O1  1.0  0.5804514180264275  0.3769191734636478  0.47292161247057973  Uiso  ?  O
O1  1.0  0.5922504932535624  0.36291903793392577  0.438120984143589  Uiso  ?  O
O1  1.0  0.5442351994930861  0.3593917952028664  0.46688203269249184  Uiso  ?  O
O1  1.0  0.5449157825521399  0.37805754627767735  0.41351784614965004  Uiso  ?  O
O1  1.0  0.5547859972682229  0.3477975062744775  0.4310646296305906  Uiso  ?  O
Ce1  1.0  0.5771717834989062  0.38210413737481763  0.3558430563379295  Uiso  ?  Ce
Ce1  1.0  0.5770391475046718  0.3637295889287927  0.4062806548089876  Uiso  ?  Ce
Ce1  1.0  0.6215233593016356  0.3632586005911912  0.38148315183775133  Uiso  ?  Ce
O1  1.0  0.5926175941191386  0.3777463884287688  0.38404212802535065  Uiso  ?  O
O1  1.0  0.6062424502310068  0.345139707920652  0.4030893527131822  Uiso  ?  O
O1  1.0  0.6050821330088344  0.36554518970313954  0.35191834626701246  Uiso  ?  O
O1  1.0  0.6158809691099827  0.3313241630522826  0.3705385243260561  Uiso  ?  O
O1  1.0  0.5580416821195389  0.3668485313912117  0.37758996695108404  Uiso  ?  O
O1  1.0  0.5685389769446659  0.33258917538039795  0.39670854933727256  Uiso  ?  O
O1  1.0  0.569492479698669  0.35338217394126287  0.34621784237401665  Uiso  ?  O
O1  1.0  0.5827077223709873  0.3197778914314953  0.3638488493346491  Uiso  ?  O
Ce1  1.0  0.6221966648723725  0.3843457831723573  0.3297772032440112  Uiso  ?  Ce
Ce1  1.0  0.5982665185476049  0.3492280132588907  0.2881246655735135  Uiso  ?  Ce
Ce1  1.0  0.5998447798294684  0.3337721788299692  0.33804238214175797  Uiso  ?  Ce
Ce1  1.0  0.6460065912896565  0.3334727436417319  0.31134330223620416  Uiso  ?  Ce
O1  1.0  0.6161718077809366  0.3509226406752216  0.3157881991473712  Uiso  ?  O
O1  1.0  0.6259993744873037  0.31985421729454944  0.3337529362288822  Uiso  ?  O
O1  1.0  0.6300734325410502  0.33977850172054425  0.2836809261730773  Uiso  ?  O
O1  1.0  0.5819355097585215  0.33720795503539897  0.3118383730998768  Uiso  ?  O
O1  1.0  0.5941471800060305  0.3207740861169195  0.27638435896322194  Uiso  ?  O
Ce1  1.0  0.6470197519415651  0.3541820792061155  0.2620242706507032  Uiso  ?  Ce
Ce1  1.0  0.6266126673845548  0.3215057975002075  0.22137980850762895  Uiso  ?  Ce
O1  1.0  0.640589457375742  0.32213591489565413  0.24732440928282892  Uiso  ?  O
Ce1  1.0  0.6750296379110334  0.3245216862795472  0.19301054449802105  Uiso  ?  Ce
O1  1.0  0.4724414819069078  0.3893309436222246  0.5614944472910349  Uiso  ?  O
O1  1.0  0.42267031625111495  0.38418303583094965  0.5875976724920849  Uiso  ?  O
O1  1.0  0.4359151111041243  0.37111428685520764  0.5547419406137173  Uiso  ?  O
O1  1.0  0.4822898037869409  0.3726506325942132  0.5266741124356034  Uiso  ?  O
O1  1.0  0.4951550392978982  0.3580504675052197  0.49142008590279074  Uiso  ?  O
O1  1.0  0.44910354849607464  0.3551460949609467  0.5210250283687423  Uiso  ?  O
O1  1.0  0.4499578527287757  0.37628761545511363  0.47140531665868  Uiso  ?  O
O1  1.0  0.45968493361526314  0.34262701959145764  0.4867698001129358  Uiso  ?  O
Ce1  1.0  0.4815440467120406  0.37983263714819493  0.41065347105289735  Uiso  ?  Ce
Ce1  1.0  0.4790839404880061  0.3624370556230279  0.46394385846909436  Uiso  ?  Ce
Ce1  1.0  0.5285309403737318  0.35923455217349753  0.4370453624932145  Uiso  ?  Ce
O1  1.0  0.49696851718354434  0.37589361868275084  0.44302449159513835  Uiso  ?  O
O1  1.0  0.5096014188130693  0.34558823665128807  0.46070699315246516  Uiso  ?  O
O1  1.0  0.5105877925409533  0.36103246825988716  0.40582493404014974  Uiso  ?  O
O1  1.0  0.5214685425972012  0.33002031342915816  0.42557446745323646  Uiso  ?  O
O1  1.0  0.46205479262325383  0.3613583211458468  0.43715356170602593  Uiso  ?  O
O1  1.0  0.47171174030697105  0.33059589892825814  0.4543582848102353  Uiso  ?  O
O1  1.0  0.47525432700891246  0.350920397360497  0.40000441969294154  Uiso  ?  O
O1  1.0  0.48354480300845776  0.3162215901612475  0.41491464795655375  Uiso  ?  O
Ce1  1.0  0.5264822303641105  0.38019463935353814  0.3847978980253562  Uiso  ?  Ce
Ce1  1.0  0.505517290839399  0.35091380641091646  0.3441185729642317  Uiso  ?  Ce
Ce1  1.0  0.5038434583702751  0.33295217338732686  0.3984387939654657  Uiso  ?  Ce
Ce1  1.0  0.552639616797278  0.3348182261574349  0.36708121412030237  Uiso  ?  Ce
O1  1.0  0.5206733526367745  0.3502449756432072  0.370394123083436  Uiso  ?  O
O1  1.0  0.5318925745643253  0.31340707429917425  0.39038200364530196  Uiso  ?  O
O1  1.0  0.5355007373250014  0.3351507899081216  0.3395406237826502  Uiso  ?  O
O1  1.0  0.4846930725423198  0.334330640240782  0.36594494514992126  Uiso  ?  O
O1  1.0  0.5014659539986177  0.3196908272354585  0.33364813436457236  Uiso  ?  O
Ce1  1.0  0.5511911419530232  0.3521147897112107  0.3159111046435192  Uiso  ?  Ce
Ce1  1.0  0.5302116572284716  0.32325686087514477  0.2762514676579189  Uiso  ?  Ce
O1  1.0  0.5444849184673621  0.3214779960301212  0.3054006394205898  Uiso  ?  O
Ce1  1.0  0.5773200547379621  0.32285821504806955  0.24868145198339853  Uiso  ?  Ce
O1  1.0  0.3775874158500585  0.38568971021439097  0.6160405708428005  Uiso  ?  O
O1  1.0  0.33020201229958646  0.3847192757944585  0.6430467636144876  Uiso  ?  O
O1  1.0  0.34152593414187493  0.3725254965761461  0.6086471509598897  Uiso  ?  O
Ce1  1.0  0.3587256097871943  0.3864009290851366  0.584717572576921  Uiso  ?  Ce
O1  1.0  0.38859099789914586  0.37257674085859627  0.5814133040486066  Uiso  ?  O
O1  1.0  0.40078251797716663  0.3580624089796966  0.5469132008440081  Uiso  ?  O
O1  1.0  0.35301934012476  0.3564516437756693  0.5740023323601847  Uiso  ?  O
O1  1.0  0.3529386685051064  0.3729066815633711  0.5235209399034915  Uiso  ?  O
O1  1.0  0.36487349567180655  0.3410975870552314  0.5395047077776325  Uiso  ?  O
Ce1  1.0  0.38575419529777444  0.3792587095962368  0.46520335154292874  Uiso  ?  Ce
Ce1  1.0  0.3833019551079867  0.3597819075619495  0.5212534555934519  Uiso  ?  Ce
Ce1  1.0  0.4319930175102357  0.3570403735048029  0.4919672401729523  Uiso  ?  Ce
O1  1.0  0.4036912851953478  0.37165153769923753  0.49491263220980725  Uiso  ?  O
O1  1.0  0.41420027256778297  0.345186986670922  0.5126671170945224  Uiso  ?  O
O1  1.0  0.41495735856963994  0.3629005846146531  0.462399257030026  Uiso  ?  O
O1  1.0  0.4235383815147134  0.32775446893207283  0.4790500203057833  Uiso  ?  O
O1  1.0  0.36723743621376304  0.36073629229178217  0.4890214608732507  Uiso  ?  O
O1  1.0  0.37789744769727857  0.32879978531057263  0.5079474303812568  Uiso  ?  O
O1  1.0  0.37844455219454115  0.3465030901960276  0.45669952365773336  Uiso  ?  O
O1  1.0  0.3927423017800197  0.31446342945067257  0.47238354824233  Uiso  ?  O
Ce1  1.0  0.4320185561323629  0.37969785020677693  0.44002164454077913  Uiso  ?  Ce
Ce1  1.0  0.4114953887363073  0.34806275503075795  0.3988543405281632  Uiso  ?  Ce
Ce1  1.0  0.40816866541524305  0.3303644963985424  0.4495069076130763  Uiso  ?  Ce
Ce1  1.0  0.45828789766588435  0.33439016588801834  0.42336769746526026  Uiso  ?  Ce
O1  1.0  0.42550004226683025  0.34765739712365296  0.42860792483425814  Uiso  ?  O
O1  1.0  0.43967040116910083  0.3145384522198817  0.4476679017444763  Uiso  ?  O
O1  1.0  0.44055110942167347  0.33171687787872134  0.39310171786948567  Uiso  ?  O
O1  1.0  0.3912039776398437  0.33343923709696466  0.4216722653146181  Uiso  ?  O
O1  1.0  0.40413692752766195  0.3178599809310673  0.38939497265454714  Uiso  ?  O
Ce1  1.0  0.4566789510496255  0.349939095130795  0.3722635412662666  Uiso  ?  Ce
Ce1  1.0  0.43354576083694524  0.31953339449051743  0.330016837623366  Uiso  ?  Ce
O1  1.0  0.45183043508143655  0.31962039012751764  0.3606417041608899  Uiso  ?  O
Ce1  1.0  0.48294492309888615  0.32307394832827496  0.30439872959410086  Uiso  ?  Ce
O1  1.0  0.28283528059937496  0.38506464354079095  0.6698228196079472  Uiso  ?  O
O1  1.0  0.23230462557625514  0.38557862134035775  0.6975298513160867  Uiso  ?  O
O1  1.0  0.24709266473550304  0.3725316383797584  0.6647789739616502  Uiso  ?  O
Ce1  1.0  0.2638082086032546  0.3873323486131635  0.6414010221925148  Uiso  ?  Ce
Ce1  1.0  0.3112541039031482  0.38798829840026455  0.6154056357165478  Uiso  ?  Ce
O1  1.0  0.2931127290215668  0.37037237273802687  0.6383719240582578  Uiso  ?  O
O1  1.0  0.30600408300427484  0.35615115394802294  0.6040389290711147  Uiso  ?  O
O1  1.0  0.2488575840791646  0.38872630043269046  0.6106209766627776  Uiso  ?  O
O1  1.0  0.2598047783769551  0.3538941669689418  0.6320640356185501  Uiso  ?  O
O1  1.0  0.26134548964947324  0.3756171712145801  0.5788190704114134  Uiso  ?  O
O1  1.0  0.26855460400747166  0.34348709262783145  0.5956431270383515  Uiso  ?  O
Ce1  1.0  0.2895672457728703  0.37461671859633544  0.5229123304565287  Uiso  ?  Ce
Ce1  1.0  0.2875592985065639  0.35972981372835505  0.5736524617423504  Uiso  ?  Ce
Ce1  1.0  0.3417040573389967  0.35901584681773246  0.5442275058606765  Uiso  ?  Ce
O1  1.0  0.3084999618644232  0.37433888732344595  0.5541996329611504  Uiso  ?  O
O1  1.0  0.3188414022880745  0.3401662849585886  0.5681386124475051  Uiso  ?  O
O1  1.0  0.31976834512905083  0.3588611582611103  0.5158421633911914  Uiso  ?  O
O1  1.0  0.3335784582168941  0.3238698102635213  0.5331262945178378  Uiso  ?  O
O1  1.0  0.2713635096193203  0.3592381268805991  0.5440090485936202  Uiso  ?  O
O1  1.0  0.2835662593434773  0.3243036285894738  0.5637983780141295  Uiso  ?  O
O1  1.0  0.285914973830767  0.3446295573074771  0.50859779680682  Uiso  ?  O
O1  1.0  0.2970943746431126  0.31207273742924707  0.5291678479188042  Uiso  ?  O
Ce1  1.0  0.34027311575507674  0.37658226674426953  0.49353663347913124  Uiso  ?  Ce
Ce1  1.0  0.31601367794777097  0.3474447803433187  0.45621318061088445  Uiso  ?  Ce
Ce1  1.0  0.3151943638501036  0.3293827763989045  0.5052965536598042  Uiso  ?  Ce
Ce1  1.0  0.36011770232173923  0.32738288742896127  0.4797209263229917  Uiso  ?  Ce
O1  1.0  0.33110233694553576  0.3465125436417721  0.48268055581766656  Uiso  ?  O
O1  1.0  0.3434219977107649  0.3148476847591843  0.4985265195718389  Uiso  ?  O
O1  1.0  0.34541003838340406  0.32989809017649485  0.4516316717436023  Uiso  ?  O
O1  1.0  0.29768066559369977  0.33028698835800147  0.4782232062648551  Uiso  ?  O
O1  1.0  0.3090075588364399  0.31735574864080807  0.4429401267080924  Uiso  ?  O
Ce1  1.0  0.3635355333838415  0.3472006872963278  0.425991435953897  Uiso  ?  Ce
Ce1  1.0  0.3417539844467468  0.3215176180149535  0.3851737067557838  Uiso  ?  Ce
O1  1.0  0.35642052115028106  0.3195339887908106  0.415283988535416  Uiso  ?  O
Ce1  1.0  0.38535948817321697  0.31961190821989155  0.3589952451560658  Uiso  ?  Ce
O1  1.0  0.18747675007775916  0.38112380143184976  0.727006994180054  Uiso  ?  O
O1  1.0  0.1494482513294758  0.3660431626504726  0.7181060753674265  Uiso  ?  O
Ce1  1.0  0.16928878089999191  0.38360245407110594  0.69652193615376  Uiso  ?  Ce
Ce1  1.0  0.2208136823413929  0.3851494748955751  0.670205256952255  Uiso  ?  Ce
O1  1.0  0.19894091710201414  0.36789041601019584  0.6908819745160976  Uiso  ?  O
O1  1.0  0.19840103078608687  0.38622622252763045  0.6414388908782055  Uiso  ?  O
O1  1.0  0.20923002382583364  0.352599490555243  0.6589394493884354  Uiso  ?  O
O1  1.0  0.15271379408696714  0.38590795850151777  0.6663418185058257  Uiso  ?  O
O1  1.0  0.16320952471301023  0.3549668981538308  0.6859882634378163  Uiso  ?  O
O1  1.0  0.1611933974844516  0.374240462790576  0.6339274358011094  Uiso  ?  O
O1  1.0  0.17621359141355042  0.3390890133466375  0.6517732122940144  Uiso  ?  O
Ce1  1.0  0.19699852398672987  0.37567178610972507  0.5744632457892841  Uiso  ?  Ce
Ce1  1.0  0.19167512304759873  0.35726094061298325  0.628184103945946  Uiso  ?  Ce
Ce1  1.0  0.2421263549171645  0.35622449378776827  0.6023949391132724  Uiso  ?  Ce
O1  1.0  0.2141472604342332  0.37480412363109755  0.6048767733877484  Uiso  ?  O
O1  1.0  0.22180631439787846  0.33812771904848843  0.6231194901325963  Uiso  ?  O
O1  1.0  0.22489072470345847  0.36089887977691654  0.5716164264905461  Uiso  ?  O
O1  1.0  0.2367456105237074  0.3264714786611299  0.5896681955814355  Uiso  ?  O
O1  1.0  0.17633629371063334  0.35708298261313753  0.6013328348569227  Uiso  ?  O
O1  1.0  0.18958241090242386  0.32304940943123106  0.6201257994569087  Uiso  ?  O
O1  1.0  0.18681765403042244  0.3412108940951943  0.5635404954930636  Uiso  ?  O
Ce1  1.0  0.24428921870968837  0.3744404193349366  0.5501547713956211  Uiso  ?  Ce
Ce1  1.0  0.2220999762274338  0.34905164305047703  0.5093828793459634  Uiso  ?  Ce
Ce1  1.0  0.21913999902757278  0.3284425368026111  0.560421374606727  Uiso  ?  Ce
Ce1  1.0  0.2644844116158617  0.3262446797670676  0.5357978084246956  Uiso  ?  Ce
O1  1.0  0.2358236773632005  0.3430056103913096  0.5349522917004165  Uiso  ?  O
O1  1.0  0.24872179433806832  0.32800354188727066  0.5047921415237434  Uiso  ?  O
O1  1.0  0.20258510343868685  0.32804446506040386  0.5306980765717311  Uiso  ?  O
O1  1.0  0.21272155795362063  0.317234293929813  0.49736934602715666  Uiso  ?  O
Ce1  1.0  0.2691247892215397  0.3460389992276532  0.48106492770840087  Uiso  ?  Ce
Ce1  1.0  0.24431702873915342  0.3144940846143951  0.4418430291295411  Uiso  ?  Ce
O1  1.0  0.26205788523453216  0.3139430506794472  0.47130992932432825  Uiso  ?  O
Ce1  1.0  0.29109865445417754  0.3167409340093084  0.41431169538635854  Uiso  ?  Ce
Ce1  1.0  0.1480958436573243  0.35468723788248496  0.659349394564405  Uiso  ?  Ce
O1  1.0  0.14394032650403937  0.3227763959753156  0.6444780933458596  Uiso  ?  O
Ce1  1.0  0.14878024170273985  0.37138516627361373  0.6066266932043923  Uiso  ?  Ce
Ce1  1.0  0.17237184883058917  0.3270384851128797  0.5883394423228249  Uiso  ?  Ce
O1  1.0  0.15414149377440592  0.3277979043181777  0.5581510240677091  Uiso  ?  O
Ce1  1.0  0.17147206661830947  0.34662429546830775  0.5360611206001523  Uiso  ?  Ce
Ce1  1.0  0.15044074337923646  0.3148526987231044  0.49596987179629465  Uiso  ?  Ce
O1  1.0  0.1676052098151525  0.3160992193653881  0.5278454000789733  Uiso  ?  O
Ce1  1.0  0.19625291714438567  0.3207860194135818  0.46826871207605103  Uiso  ?  Ce
O1  1.0  0.777018894744975  0.3847366488140956  0.5409438601619135  Uiso  ?  O
O1  1.0  0.7896568934247687  0.36892036615784135  0.5058458549501453  Uiso  ?  O
O1  1.0  0.7331739731173494  0.3820054775932055  0.5675102939312241  Uiso  ?  O
O1  1.0  0.6820506383398045  0.38258624449623324  0.5957578429695765  Uiso  ?  O
O1  1.0  0.6944672967980615  0.3699684240476706  0.5584458431190956  Uiso  ?  O
Ce1  1.0  0.7121160231362291  0.3860153080091177  0.5365323885819752  Uiso  ?  Ce
Ce1  1.0  0.7592168251287389  0.38704867811956495  0.5096267003323607  Uiso  ?  Ce
O1  1.0  0.7421024584291237  0.3690199286998177  0.5304049727471731  Uiso  ?  O
O1  1.0  0.7436889588567176  0.38599258694423116  0.48098455789494643  Uiso  ?  O
O1  1.0  0.7539590248787214  0.35803540992667576  0.4980265698763622  Uiso  ?  O
O1  1.0  0.6962174789013293  0.38749723531449975  0.5064608495457862  Uiso  ?  O
O1  1.0  0.7085772109654241  0.3554310584809569  0.5239333797179673  Uiso  ?  O
O1  1.0  0.707353624041551  0.37281750329155794  0.4713649806621402  Uiso  ?  O
O1  1.0  0.7220546841383875  0.3380008778978829  0.49045903491753595  Uiso  ?  O
Ce1  1.0  0.7387023139570702  0.37807682472513715  0.4171326944313668  Uiso  ?  Ce
Ce1  1.0  0.7378494793688286  0.35549748790296654  0.4658592579742505  Uiso  ?  Ce
Ce1  1.0  0.7836541097452132  0.3588165366094608  0.4394526070848169  Uiso  ?  Ce
O1  1.0  0.7570770795996549  0.3761089676839924  0.44936216750335917  Uiso  ?  O
O1  1.0  0.7661815086243433  0.34013435867146674  0.46174227301742243  Uiso  ?  O
O1  1.0  0.7673386906956994  0.35850300227719745  0.41103479679268723  Uiso  ?  O
O1  1.0  0.7799570633721932  0.3270165429689556  0.42926869966714143  Uiso  ?  O
O1  1.0  0.7194347892279287  0.35730010349998037  0.44025513592406595  Uiso  ?  O
O1  1.0  0.731409254017644  0.3250955493359789  0.45952815906799105  Uiso  ?  O
O1  1.0  0.7351404347067145  0.34725717520025695  0.4055117128051704  Uiso  ?  O
Ce1  1.0  0.7863660581942655  0.3759089698571334  0.3904628623248164  Uiso  ?  Ce
Ce1  1.0  0.7630326648247288  0.3459593611268563  0.3492099287577002  Uiso  ?  Ce
Ce1  1.0  0.7632404446746018  0.32884172103797715  0.4012519721250698  Uiso  ?  Ce
O1  1.0  0.7787764060531669  0.34338138120170164  0.37862126469143026  Uiso  ?  O
O1  1.0  0.7883072800333424  0.3101098309677361  0.39530032949034305  Uiso  ?  O
O1  1.0  0.7944974058199598  0.3304646572118027  0.3453378133281237  Uiso  ?  O
O1  1.0  0.744580789210886  0.33157711031187015  0.37192314686368483  Uiso  ?  O
O1  1.0  0.7569091027295981  0.31672899032654606  0.3384592074689397  Uiso  ?  O
Ce1  1.0  0.7888675146830029  0.3203490414043941  0.28426114737907776  Uiso  ?  Ce
O1  1.0  0.6353137275748764  0.3818501736592467  0.6198293549859669  Uiso  ?  O
O1  1.0  0.585401051930833  0.3810744673708826  0.647898130205584  Uiso  ?  O
O1  1.0  0.5999551022985489  0.3676649886098489  0.6152254031047574  Uiso  ?  O
Ce1  1.0  0.6184111785567352  0.38153713374633563  0.5911519103591423  Uiso  ?  Ce
Ce1  1.0  0.664975557323699  0.38350178813984453  0.5672366888543943  Uiso  ?  Ce
O1  1.0  0.6454105892592527  0.366715598405835  0.5849833493386536  Uiso  ?  O
O1  1.0  0.6490271670744857  0.385415869981229  0.5373253009622797  Uiso  ?  O
O1  1.0  0.6599584045086511  0.35346407726183104  0.5533022589299036  Uiso  ?  O
O1  1.0  0.6026662942675766  0.38343756431448417  0.5640563234425741  Uiso  ?  O
O1  1.0  0.6105795990181943  0.3511659292523626  0.5814849157100648  Uiso  ?  O
O1  1.0  0.6147906152467273  0.370061616677309  0.5277807969827277  Uiso  ?  O
O1  1.0  0.625008377998445  0.33859257605551696  0.5452473180321754  Uiso  ?  O
Ce1  1.0  0.6432680340905242  0.37242454057454516  0.4714162042395103  Uiso  ?  Ce
Ce1  1.0  0.6406410569239736  0.3571279711132201  0.5265749149564787  Uiso  ?  Ce
Ce1  1.0  0.6908540405415585  0.3581882316208334  0.4980678378631499  Uiso  ?  Ce
O1  1.0  0.6589638937346646  0.3719838558986954  0.5004331011382762  Uiso  ?  O
O1  1.0  0.6726543190616714  0.34003654154080004  0.5177038984723796  Uiso  ?  O
O1  1.0  0.6710479228526287  0.3557495001197344  0.46858570784816195  Uiso  ?  O
O1  1.0  0.683474110273263  0.3248398727874294  0.4855902924201946  Uiso  ?  O
O1  1.0  0.6226987474847416  0.3553824548393378  0.4955485048597218  Uiso  ?  O
O1  1.0  0.6350978933073902  0.3242612591229725  0.5160699898186123  Uiso  ?  O
O1  1.0  0.6347236602818709  0.34167157535938447  0.46073212952621484  Uiso  ?  O
Ce1  1.0  0.6911481820128306  0.3723350749876108  0.44403661093742824  Uiso  ?  Ce
Ce1  1.0  0.6691034424102382  0.3452083136324211  0.4049556372043784  Uiso  ?  Ce
Ce1  1.0  0.6645895608916934  0.3275027448110852  0.45490055023254156  Uiso  ?  Ce
Ce1  1.0  0.7146627370385468  0.32762497911023486  0.43152100530838394  Uiso  ?  Ce
O1  1.0  0.6857806478015361  0.3459632687745392  0.43399423510901886  Uiso  ?  O
O1  1.0  0.6962583345205642  0.3264160062958466  0.4001715549869128  Uiso  ?  O
O1  1.0  0.6514471930693447  0.33068976545400947  0.42495552482752913  Uiso  ?  O
O1  1.0  0.6634451257835443  0.31525288854335853  0.39495155817879796  Uiso  ?  O
Ce1  1.0  0.7147771927090428  0.3460722443624971  0.37800428876903963  Uiso  ?  Ce
Ce1  1.0  0.6932275284904382  0.31580269341796313  0.33559476824327195  Uiso  ?  Ce
O1  1.0  0.710531237070513  0.3170908039613044  0.36622630752212204  Uiso  ?  O
Ce1  1.0  0.7407480136739063  0.31779542404388084  0.30750284173963505  Uiso  ?  Ce
O1  1.0  0.5408716377346997  0.3807092821598414  0.6770794933381143  Uiso  ?  O
O1  1.0  0.490020118012061  0.37729111946069965  0.7047880599354289  Uiso  ?  O
O1  1.0  0.504600471060443  0.3623424653071951  0.6718614877998108  Uiso  ?  O
Ce1  1.0  0.52175694639633  0.38260609757991004  0.6470813296549109  Uiso  ?  Ce
Ce1  1.0  0.5706013292027817  0.3848183784470084  0.622339479075179  Uiso  ?  Ce
O1  1.0  0.5544130892824167  0.36543650757189433  0.6422904238931092  Uiso  ?  O
O1  1.0  0.5521453044535064  0.38463453502066886  0.5944865774319131  Uiso  ?  O
O1  1.0  0.5642863363516359  0.34996526093202085  0.6073305655593548  Uiso  ?  O
O1  1.0  0.5031111599421828  0.3830435720383647  0.6186185073977375  Uiso  ?  O
O1  1.0  0.5151029630701949  0.350477860319918  0.6336726316418965  Uiso  ?  O
O1  1.0  0.5181294324417365  0.3702356801814583  0.583727949856116  Uiso  ?  O
O1  1.0  0.5257332078681234  0.33463791956191186  0.6035714779994411  Uiso  ?  O
Ce1  1.0  0.5487168803063239  0.3725038178832759  0.5287024799046383  Uiso  ?  Ce
Ce1  1.0  0.5481814779151635  0.35409053124521794  0.5782323442487409  Uiso  ?  Ce
Ce1  1.0  0.5947519682257589  0.3563298881187605  0.5516767246129594  Uiso  ?  Ce
O1  1.0  0.5657832296935869  0.3693781477614241  0.5568454769182657  Uiso  ?  O
O1  1.0  0.5769654950024347  0.33854556000902075  0.5735123941061662  Uiso  ?  O
O1  1.0  0.577372589466244  0.35366942197530543  0.5213979442525755  Uiso  ?  O
O1  1.0  0.5867325109567465  0.3239269941866538  0.5401201109990447  Uiso  ?  O
O1  1.0  0.5317488501878967  0.3564489009365547  0.5499259444004887  Uiso  ?  O
O1  1.0  0.542929081228291  0.32240364079841427  0.5679717664678823  Uiso  ?  O
O1  1.0  0.5392302439440154  0.3421539458095664  0.5180611455904994  Uiso  ?  O
Ce1  1.0  0.5958161412305073  0.3740075538256586  0.4984661576190837  Uiso  ?  Ce
Ce1  1.0  0.5724700078751795  0.34663698164463225  0.46195925452533204  Uiso  ?  Ce
Ce1  1.0  0.5715414802685441  0.32584090854224185  0.5145136653941311  Uiso  ?  Ce
Ce1  1.0  0.6201505427355961  0.3243013149373301  0.48477742751906777  Uiso  ?  Ce
O1  1.0  0.588486631681817  0.34172354404469685  0.48733654572700524  Uiso  ?  O
O1  1.0  0.6051913253265836  0.33021426514642993  0.4540799586570298  Uiso  ?  O
O1  1.0  0.5554787598827177  0.32641980415415045  0.4821566289417288  Uiso  ?  O
O1  1.0  0.5656308191854366  0.3139823808501778  0.44749600080507157  Uiso  ?  O
Ce1  1.0  0.6220735075909104  0.34672199747173543  0.4340380509190668  Uiso  ?  Ce
Ce1  1.0  0.597347742973314  0.3137989976982616  0.3931451128410595  Uiso  ?  Ce
O1  1.0  0.6145314566884339  0.3148672920536837  0.4214291632546761  Uiso  ?  O
Ce1  1.0  0.647765016430794  0.31762345289641203  0.3638552987424243  Uiso  ?  Ce
O1  1.0  0.44307687061764034  0.3792998862886193  0.7294905743888513  Uiso  ?  O
O1  1.0  0.3978325654075623  0.3769986733397673  0.7583235131368784  Uiso  ?  O
O1  1.0  0.40782655500185233  0.36338073993960096  0.7242269776398187  Uiso  ?  O
Ce1  1.0  0.42535159035483133  0.3764267189828047  0.7036189318403167  Uiso  ?  Ce
Ce1  1.0  0.47527122387718074  0.37925782575160844  0.674075655609495  Uiso  ?  Ce
O1  1.0  0.4570503198040517  0.35944605177850564  0.6975189347604477  Uiso  ?  O
O1  1.0  0.45618065689270987  0.38583119594319537  0.6459128072203494  Uiso  ?  O
O1  1.0  0.46933995974250503  0.35132026199848754  0.6649355861528405  Uiso  ?  O
O1  1.0  0.4122826181827747  0.3818335996682247  0.6746642539683644  Uiso  ?  O
O1  1.0  0.4178632042808058  0.3492586641285445  0.6927584841787614  Uiso  ?  O
O1  1.0  0.4246587783162749  0.369170750228332  0.6414060714242235  Uiso  ?  O
O1  1.0  0.4316341449681826  0.33479240316228853  0.6573235835889051  Uiso  ?  O
Ce1  1.0  0.45378299016693663  0.3681965842800579  0.583626843178987  Uiso  ?  Ce
Ce1  1.0  0.45011375701733974  0.3527100846144603  0.6324535816653958  Uiso  ?  Ce
Ce1  1.0  0.49981492060643345  0.35085255726144  0.6047982706921882  Uiso  ?  Ce
O1  1.0  0.47078397095247937  0.36727439524897115  0.6109588188129486  Uiso  ?  O
O1  1.0  0.4825848732880879  0.33390678579697997  0.6283371728835916  Uiso  ?  O
O1  1.0  0.4850817159988529  0.35653343246290925  0.5780610814397003  Uiso  ?  O
O1  1.0  0.49302799389540564  0.3212202027976137  0.5973693473091038  Uiso  ?  O
O1  1.0  0.433981475600179  0.3525069117424526  0.6076219845811418  Uiso  ?  O
O1  1.0  0.44416291732083524  0.3216913021929622  0.622825672888355  Uiso  ?  O
O1  1.0  0.447467027023492  0.3385100639062909  0.5732066557441953  Uiso  ?  O
Ce1  1.0  0.5022507855289786  0.370984058252319  0.5566681619276515  Uiso  ?  Ce
Ce1  1.0  0.4780500218633992  0.3431355287223762  0.514845599249253  Uiso  ?  Ce
Ce1  1.0  0.47793662694252637  0.32359684502434727  0.5665239496437479  Uiso  ?  Ce
Ce1  1.0  0.5257894961267942  0.3243618116847217  0.5365457646041388  Uiso  ?  Ce
O1  1.0  0.4948645131978595  0.34140193781459194  0.5448131156058212  Uiso  ?  O
O1  1.0  0.5043011131025638  0.3251742535062215  0.506531759978928  Uiso  ?  O
O1  1.0  0.4595850332087621  0.32426464868819543  0.5371894338943081  Uiso  ?  O
Ce1  1.0  0.523547597809737  0.34327504144242166  0.4877591014189851  Uiso  ?  Ce
Ce1  1.0  0.5053481211438485  0.31397947927429726  0.445192459843364  Uiso  ?  Ce
Ce1  1.0  0.5496851659297765  0.31380029703610773  0.41944179292007827  Uiso  ?  Ce
O1  1.0  0.350663973337933  0.3749940342714546  0.7857202420205616  Uiso  ?  O
O1  1.0  0.3026013014390414  0.37551693527661556  0.8181184024362419  Uiso  ?  O
O1  1.0  0.3144208032192257  0.3587797006649813  0.780525536874472  Uiso  ?  O
Ce1  1.0  0.3323016349705818  0.3775094908280907  0.7582626793656142  Uiso  ?  Ce
Ce1  1.0  0.3815698376835044  0.3771965194867356  0.7320798316360692  Uiso  ?  Ce
O1  1.0  0.36377105362406403  0.3604610498205072  0.7525751208442558  Uiso  ?  O
O1  1.0  0.3600458262041362  0.3830585770551062  0.7007855953787838  Uiso  ?  O
O1  1.0  0.3777790704918588  0.3485515621723151  0.7172548261822178  Uiso  ?  O
O1  1.0  0.313947161716103  0.3777695355111669  0.7274421280214455  Uiso  ?  O
O1  1.0  0.3259789936223832  0.3495947615438024  0.7491560569600468  Uiso  ?  O
O1  1.0  0.32896681528500193  0.3663484536203092  0.6931666600504124  Uiso  ?  O
O1  1.0  0.3380900457661437  0.330928872188659  0.7107489522389383  Uiso  ?  O
Ce1  1.0  0.35785616762415556  0.37082552957592707  0.6399564302672839  Uiso  ?  Ce
Ce1  1.0  0.3579616657653751  0.3504412738333386  0.6919411973545169  Uiso  ?  Ce
Ce1  1.0  0.40392232296582126  0.3456442306608416  0.6585427638127495  Uiso  ?  Ce
O1  1.0  0.37869384542940654  0.3657215799683904  0.6674541559670477  Uiso  ?  O
O1  1.0  0.3855393164937874  0.33315347093109116  0.6841894632375658  Uiso  ?  O
O1  1.0  0.3882169128709159  0.3567731657781734  0.6326995816037515  Uiso  ?  O
O1  1.0  0.3979486780480367  0.3232147571644483  0.6523016859348469  Uiso  ?  O
O1  1.0  0.34104538378573096  0.35258378775884086  0.6629161309869578  Uiso  ?  O
O1  1.0  0.3513021205802962  0.31866581023548224  0.6776380241245028  Uiso  ?  O
O1  1.0  0.3521155304263841  0.3411964109986893  0.6253573488562648  Uiso  ?  O
Ce1  1.0  0.40569413570668306  0.370964513208188  0.6080121917314563  Uiso  ?  Ce
Ce1  1.0  0.38332449970104543  0.3394241801196301  0.5724439133410367  Uiso  ?  Ce
Ce1  1.0  0.3802772808571616  0.3212969368657847  0.6240006130684614  Uiso  ?  Ce
Ce1  1.0  0.4299352560714123  0.32264435052868523  0.5931896392254601  Uiso  ?  Ce
O1  1.0  0.39954886626989855  0.3396868950455257  0.5988372713105583  Uiso  ?  O
O1  1.0  0.412720689170868  0.32592473831485114  0.5664503078420265  Uiso  ?  O
O1  1.0  0.3640854590024468  0.325210945467055  0.5918936304218664  Uiso  ?  O
Ce1  1.0  0.4287988478432634  0.3413023497613541  0.5435536009424295  Uiso  ?  Ce
Ce1  1.0  0.40862724185982047  0.31509668256195983  0.5033917987942789  Uiso  ?  Ce
Ce1  1.0  0.457088655406282  0.3123458683722782  0.47489376201520006  Uiso  ?  Ce
Ce1  1.0  0.2858491061506182  0.3755603494640223  0.7846994390122587  Uiso  ?  Ce
O1  1.0  0.2658949062786327  0.3606909834443263  0.8081000352204768  Uiso  ?  O
O1  1.0  0.26790672083524825  0.37952069358210017  0.7556007389274413  Uiso  ?  O
O1  1.0  0.27676685781961496  0.3446612959858628  0.7728450578397517  Uiso  ?  O
O1  1.0  0.22241404851502464  0.3817951488193104  0.7838350341250111  Uiso  ?  O
O1  1.0  0.2313998095670384  0.3465005036126462  0.7986265568516862  Uiso  ?  O
O1  1.0  0.23405581258351218  0.3663956538153036  0.7481016230627883  Uiso  ?  O
O1  1.0  0.24279699413112002  0.33166684529384066  0.7650293681560796  Uiso  ?  O
Ce1  1.0  0.26509945910764676  0.36604142249011173  0.691635869869144  Uiso  ?  Ce
Ce1  1.0  0.26084022340163393  0.34851885360774154  0.7440744918245178  Uiso  ?  Ce
Ce1  1.0  0.30853257625462804  0.3480319432262844  0.7178926537509466  Uiso  ?  Ce
O1  1.0  0.2804464007297863  0.36487834137420516  0.7239558966159624  Uiso  ?  O
O1  1.0  0.2898535254338882  0.3315901811261523  0.7411456524852822  Uiso  ?  O
O1  1.0  0.29175829881766074  0.35121824257114936  0.6904055944565978  Uiso  ?  O
O1  1.0  0.30340183698446654  0.3172572681588474  0.7062116580882446  Uiso  ?  O
O1  1.0  0.24254243664498448  0.3520504611139469  0.7125653499750446  Uiso  ?  O
O1  1.0  0.2562183546905969  0.31823695942601354  0.7340017971339013  Uiso  ?  O
O1  1.0  0.25740340481067353  0.3355195048504407  0.6843626725111698  Uiso  ?  O
Ce1  1.0  0.31101159885055324  0.3673047427290322  0.6657355651014536  Uiso  ?  Ce
Ce1  1.0  0.28924562421420547  0.33843882267320297  0.6248822426899916  Uiso  ?  Ce
Ce1  1.0  0.28400907333213654  0.3186126553499399  0.6758129193122187  Uiso  ?  Ce
Ce1  1.0  0.3343265712665169  0.3211901418653629  0.6494059132850459  Uiso  ?  Ce
O1  1.0  0.3051809681571516  0.33531625055226927  0.6569392195742403  Uiso  ?  O
O1  1.0  0.31384780088083425  0.3237394027447872  0.6208809782635512  Uiso  ?  O
O1  1.0  0.26861530543536616  0.3203124654991528  0.6496525554988543  Uiso  ?  O
Ce1  1.0  0.3332487855783216  0.33900163560091323  0.6000673601298784  Uiso  ?  Ce
Ce1  1.0  0.21366445309702597  0.3432450932684112  0.7705811264215814  Uiso  ?  Ce
O1  1.0  0.19833343512282745  0.34689894824462403  0.7436433775672784  Uiso  ?  O
O1  1.0  0.20762532232205227  0.3150751877181416  0.7616103363020068  Uiso  ?  O
O1  1.0  0.16201558143446548  0.3348925757421128  0.7390637379689072  Uiso  ?  O
Ce1  1.0  0.21360619864176375  0.36742906422606864  0.7217799903375453  Uiso  ?  Ce
Ce1  1.0  0.19216794113563562  0.3349058971013633  0.6811893818194993  Uiso  ?  Ce
Ce1  1.0  0.1888679560871376  0.3186992188989724  0.7315725404061297  Uiso  ?  Ce
Ce1  1.0  0.23570214701744222  0.31573316625537284  0.7034571956453576  Uiso  ?  Ce
O1  1.0  0.20673278733534808  0.3345423777916068  0.708921922401907  Uiso  ?  O
O1  1.0  0.2248707846838351  0.32079352121473154  0.6767204867044698  Uiso  ?  O
O1  1.0  0.17485042774649523  0.3202716424075291  0.706238786135434  Uiso  ?  O
Ce1  1.0  0.24092336878954881  0.3407188999188051  0.6543420498449848  Uiso  ?  Ce
Ce1  1.0  0.14562523485131704  0.3344578823305896  0.710098888797871  Uiso  ?  Ce
O1  1.0  0.7484322587058134  0.3733477147349606  0.7125475107447442  Uiso  ?  O
O1  1.0  0.7646612754563953  0.3616777599506208  0.6768233091868089  Uiso  ?  O
Ce1  1.0  0.7794355420307888  0.377819981542371  0.6540470088877156  Uiso  ?  Ce
O1  1.0  0.764225391200418  0.37770993520836954  0.6255885333585728  Uiso  ?  O
O1  1.0  0.776331090926002  0.34530711010148696  0.6412673399831872  Uiso  ?  O
O1  1.0  0.7747953733999173  0.3635593599224068  0.590899052303151  Uiso  ?  O
O1  1.0  0.7870520465874957  0.331745497509993  0.6089516520190034  Uiso  ?  O
O1  1.0  0.7865908570048319  0.3506684134817147  0.5559160251037933  Uiso  ?  O
O1  1.0  0.7019311124025615  0.372893439609524  0.7354579703407153  Uiso  ?  O
O1  1.0  0.6546588794910628  0.3738501383469342  0.7642363051509228  Uiso  ?  O
O1  1.0  0.6657544214109561  0.3597499113490653  0.730243016699577  Uiso  ?  O
Ce1  1.0  0.6846868128529328  0.37604612870017595  0.7071062210261242  Uiso  ?  Ce
Ce1  1.0  0.7313173165530078  0.3759748647163396  0.6792015505469757  Uiso  ?  Ce
O1  1.0  0.7129188244106771  0.3597315675365421  0.7027757259197297  Uiso  ?  O
O1  1.0  0.7158963401469155  0.3795285753777001  0.6510915155100783  Uiso  ?  O
O1  1.0  0.7267521167689849  0.34717867534472624  0.6692956661681091  Uiso  ?  O
O1  1.0  0.6694398882354129  0.3765676850420625  0.6805453057904538  Uiso  ?  O
O1  1.0  0.6789230974205589  0.34512299535801155  0.6963924239583158  Uiso  ?  O
O1  1.0  0.681282442115962  0.3651946501619729  0.6462535992556302  Uiso  ?  O
O1  1.0  0.6915486067829575  0.33007643925221686  0.6643358094181617  Uiso  ?  O
Ce1  1.0  0.711582113489497  0.36461284583298775  0.5877527389721054  Uiso  ?  Ce
Ce1  1.0  0.710929921877739  0.3466134113778681  0.6394389389681621  Uiso  ?  Ce
Ce1  1.0  0.756337286621764  0.34880279814844767  0.6137854636002332  Uiso  ?  Ce
O1  1.0  0.7282400765544115  0.36414885877854847  0.6181350072721467  Uiso  ?  O
O1  1.0  0.7385645826015612  0.3323318859433519  0.6369940244549306  Uiso  ?  O
O1  1.0  0.7388944490078773  0.34879337358847506  0.5836053654390706  Uiso  ?  O
O1  1.0  0.7521907260216186  0.3164645457556589  0.6010479911161907  Uiso  ?  O
O1  1.0  0.6941890851581588  0.35100729799266767  0.6118399801725616  Uiso  ?  O
O1  1.0  0.703165532073108  0.3176213404767033  0.6278010989059184  Uiso  ?  O
O1  1.0  0.7050817173790238  0.3349537333244624  0.5791776454737365  Uiso  ?  O
Ce1  1.0  0.756196956647527  0.364463685920198  0.5612574837537085  Uiso  ?  Ce
Ce1  1.0  0.7355326396108662  0.3391566449099028  0.5224514403595061  Uiso  ?  Ce
Ce1  1.0  0.7333468453969009  0.3214206615359339  0.5706448140179659  Uiso  ?  Ce
Ce1  1.0  0.7826457919967221  0.3216018986795846  0.5436836106248024  Uiso  ?  Ce
O1  1.0  0.7535920071971066  0.33592931770925116  0.5495985652308683  Uiso  ?  O
O1  1.0  0.7651787811099444  0.3211755086344064  0.5169521141398018  Uiso  ?  O
O1  1.0  0.7159953557166342  0.32177787349934567  0.5412533052884345  Uiso  ?  O
Ce1  1.0  0.7819408528611106  0.33902935133961215  0.4917819827541027  Uiso  ?  Ce
O1  1.0  0.607958143720472  0.3728150100810079  0.7934622365054468  Uiso  ?  O
O1  1.0  0.5601578244485513  0.37188606119306145  0.8196129140142817  Uiso  ?  O
O1  1.0  0.5712413343592018  0.35789053130829124  0.7901969999329149  Uiso  ?  O
Ce1  1.0  0.5922082487370175  0.37402935582407  0.7608749409191242  Uiso  ?  Ce
Ce1  1.0  0.6396164760639268  0.3748978957809194  0.7353285018810535  Uiso  ?  Ce
O1  1.0  0.6170703938528683  0.3583014410558597  0.7566846196364014  Uiso  ?  O
O1  1.0  0.6205274107031683  0.3750299943035109  0.7063735060663017  Uiso  ?  O
O1  1.0  0.6325362276989223  0.346709540383446  0.7259766862121766  Uiso  ?  O
O1  1.0  0.5722879876471466  0.3775333476554092  0.7363563119134179  Uiso  ?  O
O1  1.0  0.5878788381891454  0.342123171200022  0.753158057023354  Uiso  ?  O
O1  1.0  0.5867483527708641  0.3617365698558807  0.6997037701014137  Uiso  ?  O
O1  1.0  0.5959811707303623  0.3288061533701882  0.7190815269974726  Uiso  ?  O
Ce1  1.0  0.6153749969861538  0.36405442373088553  0.6441421443620134  Uiso  ?  Ce
Ce1  1.0  0.6131535080079668  0.3436958110169556  0.6947156351834001  Uiso  ?  Ce
Ce1  1.0  0.6644351609303297  0.3462744849811245  0.670436911340351  Uiso  ?  Ce
O1  1.0  0.6349455470623317  0.36207406731204994  0.6717356453849268  Uiso  ?  O
O1  1.0  0.6440666522297659  0.3308298176583972  0.6909331085816576  Uiso  ?  O
O1  1.0  0.6453380923378543  0.3474343616918461  0.6407709361269932  Uiso  ?  O
O1  1.0  0.6588796054982246  0.31563459395034993  0.6588672713157067  Uiso  ?  O
O1  1.0  0.5980502246115333  0.3478946461210949  0.6677474019576881  Uiso  ?  O
O1  1.0  0.609758448092438  0.31370729767657624  0.6843544177062807  Uiso  ?  O
O1  1.0  0.6113563005785775  0.33417302005050076  0.6327389678066045  Uiso  ?  O
Ce1  1.0  0.6622660382857655  0.36678708431095475  0.6151910509638157  Uiso  ?  Ce
Ce1  1.0  0.6429412543796663  0.33559177216378067  0.5757505732713115  Uiso  ?  Ce
Ce1  1.0  0.6379399113598747  0.31729475517541467  0.6274444409713824  Uiso  ?  Ce
Ce1  1.0  0.6871765888368964  0.3186960727388229  0.5982271553039537  Uiso  ?  Ce
O1  1.0  0.6568574036152691  0.3349055553248138  0.6026089488604055  Uiso  ?  O
O1  1.0  0.6698355266468969  0.32154369770004004  0.5717530955870845  Uiso  ?  O
O1  1.0  0.6231864175580889  0.3216665348910455  0.597902613926539  Uiso  ?  O
Ce1  1.0  0.6867922929562209  0.33645025869572337  0.5482815501551258  Uiso  ?  Ce
O1  1.0  0.5114451984887358  0.3718227489189413  0.8499578699522616  Uiso  ?  O
O1  1.0  0.4752672324951675  0.35677546330135995  0.8432299517892725  Uiso  ?  O
Ce1  1.0  0.4931693907119492  0.3725246547676402  0.8187508736085402  Uiso  ?  Ce
Ce1  1.0  0.5419429925541643  0.3760518352337757  0.7933145209370926  Uiso  ?  Ce
O1  1.0  0.5228685310915785  0.3567652186897094  0.8147619037840597  Uiso  ?  O
O1  1.0  0.5245107236449233  0.3747787452679282  0.7619614346404026  Uiso  ?  O
O1  1.0  0.53792793504101  0.34307900213786774  0.7793604390758758  Uiso  ?  O
O1  1.0  0.4798379668814985  0.374142894932521  0.7890635062405439  Uiso  ?  O
O1  1.0  0.485817295627923  0.3433037575960337  0.8066920594306903  Uiso  ?  O
O1  1.0  0.49221591561057565  0.35890225154155947  0.7588492032885416  Uiso  ?  O
O1  1.0  0.5018006572533577  0.3270774704200767  0.7739811351064694  Uiso  ?  O
Ce1  1.0  0.5214159696856884  0.36479181272431194  0.6991519926610381  Uiso  ?  Ce
Ce1  1.0  0.5189145333077848  0.34317727840904366  0.7504041660239728  Uiso  ?  Ce
Ce1  1.0  0.5691382955024337  0.3443486278930741  0.7226736374023646  Uiso  ?  Ce
O1  1.0  0.5371352830014322  0.3615279997220727  0.7292574218878539  Uiso  ?  O
O1  1.0  0.546412512937775  0.32787405788638274  0.7468154788998033  Uiso  ?  O
O1  1.0  0.5511038148366495  0.3494097527634202  0.6951081503463674  Uiso  ?  O
O1  1.0  0.5613495987707753  0.3165491790847548  0.7141506818190422  Uiso  ?  O
O1  1.0  0.5003569427677559  0.34504326119706946  0.722893442327239  Uiso  ?  O
O1  1.0  0.5130160287804677  0.31384081549819437  0.7401141954141255  Uiso  ?  O
O1  1.0  0.5169288450253104  0.3319256345721175  0.6863597671162006  Uiso  ?  O
Ce1  1.0  0.5682819417486998  0.36612083207236384  0.6725433580190212  Uiso  ?  Ce
Ce1  1.0  0.546706916442409  0.3358293780504631  0.6302783695768337  Uiso  ?  Ce
Ce1  1.0  0.5445581949144762  0.3169171393677275  0.6833325487678732  Uiso  ?  Ce
Ce1  1.0  0.5919759947777059  0.3156469310539506  0.6545044888648284  Uiso  ?  Ce
O1  1.0  0.562718981237094  0.33354212165165503  0.659970260670818  Uiso  ?  O
O1  1.0  0.5736261126440302  0.31894232278598705  0.6280215895052714  Uiso  ?  O
O1  1.0  0.5280704675713797  0.31798328775150064  0.6535294323964265  Uiso  ?  O
Ce1  1.0  0.5961079566336043  0.33686126755614604  0.6037885190420547  Uiso  ?  Ce
Ce1  1.0  0.44541245180292566  0.3723490597953199  0.8477440907911088  Uiso  ?  Ce
O1  1.0  0.4180674158541038  0.38356352515661285  0.8531513408750074  Uiso  ?  O
O1  1.0  0.4323595877434425  0.3739373514951603  0.8172563373301938  Uiso  ?  O
O1  1.0  0.44054208378781257  0.34180349593891907  0.8364328391135741  Uiso  ?  O
O1  1.0  0.3850766063573379  0.3724468520658651  0.8462162028937035  Uiso  ?  O
O1  1.0  0.3946252723690766  0.3569596615701927  0.8104783430234989  Uiso  ?  O
O1  1.0  0.40672267876421986  0.3268677572809269  0.8279729066935485  Uiso  ?  O
Ce1  1.0  0.4271970176733346  0.36186489422073037  0.7547877493287773  Uiso  ?  Ce
Ce1  1.0  0.4259949504092352  0.34341559650876297  0.8043961250399727  Uiso  ?  Ce
Ce1  1.0  0.47151424217994836  0.3432415783273576  0.7797894791444712  Uiso  ?  Ce
O1  1.0  0.4425869208103561  0.36029583998064085  0.7866104297445583  Uiso  ?  O
O1  1.0  0.45340361853760425  0.32419978942640737  0.8021023117708106  Uiso  ?  O
O1  1.0  0.4556230456984006  0.34662923504185555  0.7488480538238431  Uiso  ?  O
O1  1.0  0.46452046415603837  0.31299534763001347  0.7673074800605622  Uiso  ?  O
O1  1.0  0.40707951000143405  0.3434662610469417  0.7752119643460816  Uiso  ?  O
O1  1.0  0.4199024239606491  0.33051123436157326  0.7407039451456195  Uiso  ?  O
Ce1  1.0  0.4735067473630895  0.36322874216977036  0.7268090129315958  Uiso  ?  Ce
Ce1  1.0  0.4508164576054619  0.33569664417534656  0.6876099927753025  Uiso  ?  Ce
Ce1  1.0  0.4470802092141421  0.31389802496311714  0.7378853734355112  Uiso  ?  Ce
Ce1  1.0  0.4965027660182479  0.3147293292375928  0.7127757122617336  Uiso  ?  Ce
O1  1.0  0.46794754525497506  0.3305631199885118  0.7184007297855367  Uiso  ?  O
O1  1.0  0.47903697484075397  0.3151378616934456  0.6816584718201971  Uiso  ?  O
O1  1.0  0.43105410482424694  0.3161532303608611  0.707128319547722  Uiso  ?  O
Ce1  1.0  0.49863822881173464  0.3344553580558662  0.6608648238534539  Uiso  ?  Ce
Ce1  1.0  0.32819245920031226  0.3595131437056212  0.8100790106461073  Uiso  ?  Ce
Ce1  1.0  0.37914904946070704  0.34117506537352027  0.8331864950681462  Uiso  ?  Ce
O1  1.0  0.346655345178025  0.3591819770996549  0.8382207531015693  Uiso  ?  O
O1  1.0  0.3600664538054512  0.3250060968520164  0.8567949667397843  Uiso  ?  O
O1  1.0  0.3603614199908389  0.3452515550107932  0.8038334820349166  Uiso  ?  O
O1  1.0  0.3138657338266286  0.34568252174842257  0.8342908280630599  Uiso  ?  O
O1  1.0  0.3267209381676869  0.32836401152364797  0.7989671121221702  Uiso  ?  O
Ce1  1.0  0.37798536615394107  0.3607317709714702  0.7831159698900728  Uiso  ?  Ce
Ce1  1.0  0.3533754245140163  0.33227326946461744  0.7406346847029783  Uiso  ?  Ce
Ce1  1.0  0.3533871590659149  0.31321138919108243  0.7938034816519606  Uiso  ?  Ce
Ce1  1.0  0.40142253690326024  0.31360808168801046  0.7654266326897057  Uiso  ?  Ce
O1  1.0  0.37289661670938457  0.3305893711575628  0.7687488515607793  Uiso  ?  O
O1  1.0  0.38394481044184336  0.31784638503760615  0.7359835222454715  Uiso  ?  O
O1  1.0  0.337517101892535  0.3140890520199937  0.7623336522723645  Uiso  ?  O
Ce1  1.0  0.40310328042635346  0.3292938914593282  0.7134612954481288  Uiso  ?  Ce
Ce1  1.0  0.281809815531758  0.36163602162884556  0.8377849317370457  Uiso  ?  Ce
Ce1  1.0  0.2608410903594153  0.3273313371586139  0.7972632150114528  Uiso  ?  Ce
O1  1.0  0.2771581787242058  0.3290057613525558  0.8266593239709679  Uiso  ?  O
O1  1.0  0.28957140543223486  0.31309986876872875  0.7907112627806767  Uiso  ?  O
O1  1.0  0.24318345080546053  0.31168500007256916  0.8179968703218016  Uiso  ?  O
Ce1  1.0  0.3065175161738414  0.32992484290014973  0.7692234668925945  Uiso  ?  Ce
O1  1.0  0.793103626901803  0.33956031339657783  0.7870323566480781  Uiso  ?  O
O1  1.0  0.7447649601087006  0.33886780807930456  0.8157044103750628  Uiso  ?  O
O1  1.0  0.7472373714996884  0.3570976943610233  0.7634629683359996  Uiso  ?  O
O1  1.0  0.7586914880632837  0.3245799342437783  0.7815175997092031  Uiso  ?  O
Ce1  1.0  0.7801639577194094  0.36029803400893445  0.7025093417831665  Uiso  ?  Ce
Ce1  1.0  0.7769346741499648  0.3389757193105562  0.7550837340700034  Uiso  ?  Ce
O1  1.0  0.7607514590010395  0.3398960474980683  0.7262807350843058  Uiso  ?  O
O1  1.0  0.7715129007509769  0.32729834091927174  0.6927650928559961  Uiso  ?  O
O1  1.0  0.7830068918116214  0.31506680062989806  0.6578805986843095  Uiso  ?  O
O1  1.0  0.6976466789763736  0.3369237563953717  0.8400591940853464  Uiso  ?  O
O1  1.0  0.6519170693956854  0.35325817444003516  0.8141746325241966  Uiso  ?  O
O1  1.0  0.665693159872009  0.3214058833478436  0.8342049793704499  Uiso  ?  O
Ce1  1.0  0.6828319241659055  0.35604994064147916  0.7597146451975701  Uiso  ?  Ce
Ce1  1.0  0.6810112166710113  0.33707397297407415  0.8121499793446953  Uiso  ?  Ce
Ce1  1.0  0.7308337937455767  0.3406868117405355  0.7833345323377044  Uiso  ?  Ce
O1  1.0  0.6978714604353443  0.35024421971109054  0.7897079657867973  Uiso  ?  O
O1  1.0  0.7115458786605784  0.32535791342861875  0.8050156880008731  Uiso  ?  O
O1  1.0  0.714208084711262  0.34246264727739495  0.7552162036656354  Uiso  ?  O
O1  1.0  0.6689286301455916  0.34031569917264143  0.7792785661051905  Uiso  ?  O
O1  1.0  0.6787785432487037  0.32540358093308197  0.7479214538056862  Uiso  ?  O
Ce1  1.0  0.7311924825903177  0.3576270015178166  0.7337464070157904  Uiso  ?  Ce
Ce1  1.0  0.7097260590377548  0.3276677345249933  0.6934828892460506  Uiso  ?  Ce
O1  1.0  0.7253193431049191  0.32758252171072266  0.7225382720651647  Uiso  ?  O
O1  1.0  0.738018180785095  0.3147008489090585  0.6863933081500644  Uiso  ?  O
Ce1  1.0  0.7571851136575566  0.3280535704239441  0.6648647804172679  Uiso  ?  Ce
Ce1  1.0  0.5873785253920496  0.3544664145340491  0.8151734074960095  Uiso  ?  Ce
Ce1  1.0  0.6356140938893186  0.3397145834232668  0.8370953899445018  Uiso  ?  Ce
O1  1.0  0.6059553867011077  0.35476899038032617  0.8441159577601166  Uiso  ?  O
O1  1.0  0.6179559540730546  0.3393934891257553  0.8107148964054675  Uiso  ?  O
O1  1.0  0.571851642094816  0.3382490915096268  0.8391531164257876  Uiso  ?  O
O1  1.0  0.5836144997500453  0.3268027548522289  0.8036645568801357  Uiso  ?  O
Ce1  1.0  0.6371684105565628  0.3571794780307212  0.7862368352749137  Uiso  ?  Ce
Ce1  1.0  0.6136244118240434  0.32811039873349623  0.748409173164998  Uiso  ?  Ce
O1  1.0  0.6320645389192568  0.3240607563471943  0.7766813322025995  Uiso  ?  O
Ce1  1.0  0.6607302326785935  0.3274995064849523  0.7198837816008857  Uiso  ?  Ce
Ce1  1.0  0.5423530911374138  0.35369567607769165  0.8450203128884793  Uiso  ?  Ce
Ce1  1.0  0.518403036387409  0.32382750980440894  0.8016181106725431  Uiso  ?  Ce
O1  1.0  0.5356882819581995  0.3245385354937707  0.8327715079884145  Uiso  ?  O
Ce1  1.0  0.5655251845358632  0.32572587324715296  0.7751930081763533  Uiso  ?  Ce
Ce1  1.0  0.42318862076877106  0.3250854083355697  0.8619922088119575  Uiso  ?  Ce
Ce1  1.0  0.4697797432230181  0.3266052448301589  0.8301787341232433  Uiso  ?  Ce
Ce1  1.0  0.7763826168007639  0.3210139241570811  0.809135763996331  Uiso  ?  Ce
O1  1.0  0.7932474882261069  0.31948179505039515  0.8376149755574933  Uiso  ?  O
Ce1  1.0  0.7268494123914123  0.32053245733447566  0.8355210234448772  Uiso  ?  Ce
O1  1.0  0.2808930334770969  0.3016690280245255  0.17445248797991186  Uiso  ?  O
O1  1.0  0.18655023099279042  0.29906410164514535  0.22654886400771765  Uiso  ?  O
O1  1.0  0.2337727258983111  0.2980042241292499  0.2024149344248023  Uiso  ?  O
O1  1.0  0.2449603137409152  0.2829359357498504  0.16448877261697942  Uiso  ?  O
O1  1.0  0.19693304168916598  0.28599954193673555  0.19328862916537792  Uiso  ?  O
O1  1.0  0.20869448678582914  0.2699525614610219  0.15987004152251064  Uiso  ?  O
O1  1.0  0.1503682897104935  0.28406000568311146  0.22195021770716106  Uiso  ?  O
O1  1.0  0.1632306062732799  0.2703424869453309  0.1868128137820565  Uiso  ?  O
O1  1.0  0.572662763874207  0.3113055949369529  0.1834817120429139  Uiso  ?  O
O1  1.0  0.5266027364480036  0.3104748623441588  0.21234518783121337  Uiso  ?  O
O1  1.0  0.5403861466944196  0.29739445365239675  0.17713055252720364  Uiso  ?  O
O1  1.0  0.4769909775925943  0.3097966770237688  0.2421675022869169  Uiso  ?  O
O1  1.0  0.433533220724325  0.3074729177211782  0.2667358573424284  Uiso  ?  O
O1  1.0  0.44384651491319965  0.2929525813096218  0.23534572693031702  Uiso  ?  O
Ce1  1.0  0.45951452913793517  0.3111823086858572  0.21276724515253642  Uiso  ?  Ce
O1  1.0  0.49242906929382824  0.29568278994732244  0.20644824930381722  Uiso  ?  O
O1  1.0  0.5016869103641682  0.2818107600454638  0.17438004284731096  Uiso  ?  O
O1  1.0  0.4552314053331856  0.27930419996192746  0.19786262790087233  Uiso  ?  O
O1  1.0  0.4669146051564252  0.2670761815827199  0.1650316184917895  Uiso  ?  O
O1  1.0  0.3825360008728303  0.30655545668287326  0.2953783716670564  Uiso  ?  O
O1  1.0  0.336504221615104  0.308005193996895  0.3202757730924884  Uiso  ?  O
O1  1.0  0.3468705061699012  0.2922041853939657  0.2905452231627756  Uiso  ?  O
Ce1  1.0  0.3666950665074236  0.30860145341383327  0.26580492583185084  Uiso  ?  Ce
Ce1  1.0  0.4127062921187085  0.31330315638770057  0.23732417270743325  Uiso  ?  Ce
O1  1.0  0.395269394530549  0.2937525246258792  0.2616312736296731  Uiso  ?  O
O1  1.0  0.4070873138097495  0.2804167301398611  0.2268870227682756  Uiso  ?  O
O1  1.0  0.35231944740576926  0.31259322079819746  0.2377769043610103  Uiso  ?  O
O1  1.0  0.361447778649239  0.2791883896126075  0.25203761596129004  Uiso  ?  O
O1  1.0  0.3589645252514596  0.29902413123638266  0.20314903444378835  Uiso  ?  O
O1  1.0  0.37106494433083237  0.26423097061643874  0.2216682007255646  Uiso  ?  O
Ce1  1.0  0.3907776631890913  0.2836505576639781  0.19814173322752474  Uiso  ?  Ce
Ce1  1.0  0.4363167481788474  0.28231274765651876  0.17137072676484144  Uiso  ?  Ce
O1  1.0  0.4078069649685004  0.29734541465435754  0.17763312541971651  Uiso  ?  O
O1  1.0  0.4207922174164718  0.2643527416161752  0.19249687741891994  Uiso  ?  O
O1  1.0  0.4319075930836279  0.25150177942477686  0.1591654834870258  Uiso  ?  O
O1  1.0  0.37230926477051274  0.28401066291903854  0.1704656067828194  Uiso  ?  O
O1  1.0  0.3837794377666506  0.25265496420677475  0.18693373300153004  Uiso  ?  O
O1  1.0  0.28829500797112895  0.3085043273253413  0.3511251209590183  Uiso  ?  O
O1  1.0  0.24127869259903942  0.3057865261434864  0.37794148109852954  Uiso  ?  O
O1  1.0  0.2511653774037898  0.29061934903984016  0.34743830454461827  Uiso  ?  O
Ce1  1.0  0.2708902418374013  0.3089725872432437  0.3213205480476077  Uiso  ?  Ce
Ce1  1.0  0.32031016066896084  0.3100283644013312  0.2941359336442868  Uiso  ?  Ce
O1  1.0  0.2975625998076915  0.29276880463920507  0.3170863343057376  Uiso  ?  O
O1  1.0  0.3013150404616732  0.3101401524163726  0.2618799102140161  Uiso  ?  O
O1  1.0  0.3118977069713032  0.2772626958867329  0.2815277285445291  Uiso  ?  O
O1  1.0  0.2523100831122556  0.3107233042208032  0.29076271421908717  Uiso  ?  O
O1  1.0  0.2658395054800396  0.27576589798426954  0.31126061724228055  Uiso  ?  O
O1  1.0  0.26427112398347646  0.29916539773007594  0.25752741183718214  Uiso  ?  O
O1  1.0  0.2774955624293943  0.2620674788971934  0.27306365234411517  Uiso  ?  O
Ce1  1.0  0.29567266229454464  0.29865139106338084  0.20047295259653114  Uiso  ?  Ce
Ce1  1.0  0.29287536727712227  0.2831249609573713  0.25089455366045527  Uiso  ?  Ce
Ce1  1.0  0.3428396081940242  0.2801364138907595  0.22288949566017197  Uiso  ?  Ce
O1  1.0  0.3150125332251534  0.29645837728957236  0.23141393309023556  Uiso  ?  O
O1  1.0  0.3241675789167245  0.2641196321405241  0.2494028605985343  Uiso  ?  O
O1  1.0  0.32502603975483496  0.2821806537772181  0.19638800575083099  Uiso  ?  O
O1  1.0  0.3369760666598259  0.25171249519965355  0.21528933810851278  Uiso  ?  O
O1  1.0  0.2771798491775049  0.28030650926255274  0.22333238717599557  Uiso  ?  O
O1  1.0  0.29086750041953974  0.24747536186205402  0.24074792284795096  Uiso  ?  O
O1  1.0  0.29201530901248707  0.2658580358513862  0.19244470573365716  Uiso  ?  O
Ce1  1.0  0.3450436555225334  0.29891123572959716  0.171513890381348  Uiso  ?  Ce
Ce1  1.0  0.3215102984041351  0.2532044097209809  0.18349080358441064  Uiso  ?  Ce
Ce1  1.0  0.3668969133997616  0.25359795291835585  0.1582155798262197  Uiso  ?  Ce
O1  1.0  0.3376394404578368  0.26725998496816944  0.1640231616607738  Uiso  ?  O
O1  1.0  0.3045410009640862  0.2529751658809408  0.15844605138420698  Uiso  ?  O
O1  1.0  0.19278738173147925  0.3060879933820518  0.4059505072259673  Uiso  ?  O
O1  1.0  0.14422298837235545  0.30544642458429666  0.43334478021666667  Uiso  ?  O
O1  1.0  0.15644869529957467  0.29045926102277037  0.3998519034031893  Uiso  ?  O
Ce1  1.0  0.17477062746169425  0.30635319164440017  0.3745742342090376  Uiso  ?  Ce
Ce1  1.0  0.22386647823729736  0.3070691805927032  0.3486182247815165  Uiso  ?  Ce
O1  1.0  0.2035386176204141  0.289867345608823  0.3712645744039831  Uiso  ?  O
O1  1.0  0.2060616850862872  0.3106812602772785  0.3221957080552735  Uiso  ?  O
O1  1.0  0.21667380434391495  0.2757446290151934  0.33939799277911004  Uiso  ?  O
O1  1.0  0.16029777101597079  0.308350885411604  0.34857781257087606  Uiso  ?  O
O1  1.0  0.16874170650530199  0.27769760329125404  0.36179675962634283  Uiso  ?  O
O1  1.0  0.17004779300405576  0.2928639174902585  0.31304104154859863  Uiso  ?  O
O1  1.0  0.1801417683731347  0.26125570811537524  0.3295676822401594  Uiso  ?  O
Ce1  1.0  0.20129188866324244  0.29630521335277427  0.256080193190736  Uiso  ?  Ce
Ce1  1.0  0.19879180106522243  0.27742176209950964  0.3072601040067069  Uiso  ?  Ce
Ce1  1.0  0.24591385602343607  0.27734849649765286  0.2785811424613097  Uiso  ?  Ce
O1  1.0  0.21976269417797578  0.29400018586315796  0.28477661152319916  Uiso  ?  O
O1  1.0  0.22764151409088654  0.2617711635785595  0.30206766355983117  Uiso  ?  O
O1  1.0  0.23134658819891407  0.28049338914727184  0.2529654803615076  Uiso  ?  O
O1  1.0  0.24536619251025157  0.2461633935735044  0.26860269192088504  Uiso  ?  O
O1  1.0  0.18466470990694753  0.28035667704814915  0.2809511985010134  Uiso  ?  O
O1  1.0  0.19451100156163775  0.24735390601220142  0.2984189952592409  Uiso  ?  O
O1  1.0  0.19391691607500375  0.2654843344497936  0.24509130010778513  Uiso  ?  O
Ce1  1.0  0.2504523470602987  0.29441510682252975  0.22867258831765142  Uiso  ?  Ce
Ce1  1.0  0.22700700004474314  0.26881158426729174  0.18856787146801351  Uiso  ?  Ce
Ce1  1.0  0.22404779537611028  0.2500026515610087  0.24086259046447267  Uiso  ?  Ce
Ce1  1.0  0.2722300684387228  0.251621634338933  0.2122768741147974  Uiso  ?  Ce
O1  1.0  0.24347914275675037  0.26582187367819265  0.21800274398703762  Uiso  ?  O
O1  1.0  0.25364973317907563  0.2527900453060803  0.18060493997735547  Uiso  ?  O
O1  1.0  0.2062751937308337  0.25230792368827093  0.21302794798192995  Uiso  ?  O
O1  1.0  0.21988884584620783  0.23588255104615213  0.1779104757698509  Uiso  ?  O
Ce1  1.0  0.27352977357427694  0.26773440782427127  0.16297220738104706  Uiso  ?  Ce
Ce1  1.0  0.15367031915225698  0.2779878562663446  0.3348277155801111  Uiso  ?  Ce
O1  1.0  0.1451178492689072  0.24709776391555666  0.32385635176012995  Uiso  ?  O
Ce1  1.0  0.15391637625151314  0.2955973098981079  0.2835890001164616  Uiso  ?  Ce
Ce1  1.0  0.17788451076245565  0.24965726207591515  0.26567226117580145  Uiso  ?  Ce
O1  1.0  0.15000214548084878  0.26508798762128516  0.2743953303050591  Uiso  ?  O
O1  1.0  0.16073420838111022  0.2518496130768111  0.24105706198534382  Uiso  ?  O
Ce1  1.0  0.17736634364355278  0.26790415110116966  0.21427268660384144  Uiso  ?  Ce
Ce1  1.0  0.15862662062023544  0.23853309101056316  0.17344647710823158  Uiso  ?  Ce
O1  1.0  0.17308068730188397  0.2383438860725932  0.2048549448054445  Uiso  ?  O
O1  1.0  0.7852196118165934  0.30424741026483193  0.22000056605984672  Uiso  ?  O
O1  1.0  0.796360288548338  0.2932460159845347  0.18446176825030094  Uiso  ?  O
O1  1.0  0.7370177060049347  0.3053936298335491  0.24699553325864693  Uiso  ?  O
O1  1.0  0.6892731603037704  0.3053252706009489  0.2711528560443509  Uiso  ?  O
O1  1.0  0.7020888265792521  0.29125773267719246  0.23833948032526592  Uiso  ?  O
Ce1  1.0  0.7193109771608708  0.3084521118381285  0.2159902711296399  Uiso  ?  Ce
Ce1  1.0  0.7668832955212581  0.3083428745223259  0.19014151267540474  Uiso  ?  Ce
O1  1.0  0.7479764031865178  0.29094495254427777  0.2114690346713604  Uiso  ?  O
O1  1.0  0.7483594977825568  0.3097966309297707  0.1585781039563602  Uiso  ?  O
O1  1.0  0.7635402627750288  0.27693331112402975  0.1792043658007799  Uiso  ?  O
O1  1.0  0.7044664076114009  0.31119544703334195  0.18671021193751716  Uiso  ?  O
O1  1.0  0.7122695119018956  0.27578969881932364  0.2050200289566096  Uiso  ?  O
O1  1.0  0.7249176357175178  0.2598331238630906  0.1699768621714056  Uiso  ?  O
O1  1.0  0.6399479373999304  0.30511034435956047  0.3004069527756655  Uiso  ?  O
O1  1.0  0.5935552071014877  0.3028776733185523  0.3282976519921539  Uiso  ?  O
O1  1.0  0.6044204479920297  0.29022407834400804  0.2925007788480968  Uiso  ?  O
Ce1  1.0  0.6234559345175702  0.30565514719634695  0.2727730062786545  Uiso  ?  Ce
Ce1  1.0  0.6699233242637217  0.30577493338546413  0.2454251392471568  Uiso  ?  Ce
O1  1.0  0.6542716648032432  0.29082212529758306  0.2662195096360941  Uiso  ?  O
O1  1.0  0.6532894715870882  0.30963049190152436  0.21467630018424363  Uiso  ?  O
O1  1.0  0.6638470231871553  0.2772833283586785  0.2329103412352545  Uiso  ?  O
O1  1.0  0.6063691699698763  0.30702071118582985  0.24038230014751194  Uiso  ?  O
O1  1.0  0.618252352409982  0.2755112737265962  0.2613043904285852  Uiso  ?  O
O1  1.0  0.6206046085817785  0.29343473529552927  0.2116765260892718  Uiso  ?  O
O1  1.0  0.6306759444901415  0.2602395822450022  0.22643518539765528  Uiso  ?  O
Ce1  1.0  0.6486447015071071  0.2772964962903108  0.2046113701465691  Uiso  ?  Ce
Ce1  1.0  0.6940334179682528  0.27577678343894724  0.17767675982786063  Uiso  ?  Ce
O1  1.0  0.6639763386936715  0.29606141506799105  0.18476698481321394  Uiso  ?  O
O1  1.0  0.6760357963350485  0.2594107134225272  0.19878855848544616  Uiso  ?  O
O1  1.0  0.6909079218165906  0.24971957046270138  0.1638560941394674  Uiso  ?  O
O1  1.0  0.632100303752756  0.28121175717921215  0.17621445260706156  Uiso  ?  O
O1  1.0  0.6422488805613136  0.24515871252832439  0.19502724303725022  Uiso  ?  O
O1  1.0  0.5476807841917198  0.3027467088787479  0.35541509987884656  Uiso  ?  O
O1  1.0  0.4981910914250646  0.301623872925694  0.38556437953455536  Uiso  ?  O
O1  1.0  0.5083441821557969  0.28617949584623853  0.3524282426716894  Uiso  ?  O
Ce1  1.0  0.5269048951379458  0.3066530458482202  0.3251341126005114  Uiso  ?  Ce
Ce1  1.0  0.5737609796165628  0.30363229849616385  0.299225392732625  Uiso  ?  Ce
O1  1.0  0.5563237822538831  0.2901139677029296  0.32078847953881473  Uiso  ?  O
O1  1.0  0.5596041747743229  0.309982076550061  0.27022998899727585  Uiso  ?  O
O1  1.0  0.5702394846992389  0.273837628659259  0.28972113597505317  Uiso  ?  O
O1  1.0  0.5104662850756038  0.30560314754958207  0.29875049014031807  Uiso  ?  O
O1  1.0  0.5218758418790012  0.27246497915375917  0.3170564697632547  Uiso  ?  O
O1  1.0  0.5257460379706309  0.28876886082426967  0.2630948781032052  Uiso  ?  O
O1  1.0  0.5353110174786069  0.2606919308833399  0.28164599276603575  Uiso  ?  O
Ce1  1.0  0.554817001055557  0.29214208452964435  0.2063836475410643  Uiso  ?  Ce
Ce1  1.0  0.5549052640843324  0.275422244427356  0.2608165010198827  Uiso  ?  Ce
Ce1  1.0  0.6012303665015649  0.2772837263607577  0.23009522765173274  Uiso  ?  Ce
O1  1.0  0.5699039158845738  0.29538283829080564  0.23683244511594587  Uiso  ?  O
O1  1.0  0.5843041633088685  0.26201449018501705  0.2542502493191185  Uiso  ?  O
O1  1.0  0.5848620711622395  0.2771320766414606  0.20075463223878096  Uiso  ?  O
O1  1.0  0.5956243690442038  0.24497088157386368  0.21916955375457123  Uiso  ?  O
O1  1.0  0.5385089915811772  0.27644014396283434  0.22721508573928936  Uiso  ?  O
O1  1.0  0.5449565694550934  0.24679237963871847  0.2478083159594127  Uiso  ?  O
O1  1.0  0.5473818315865252  0.2637341287323149  0.19867933973531937  Uiso  ?  O
Ce1  1.0  0.602603556472922  0.29342935453412083  0.17663653926916686  Uiso  ?  Ce
Ce1  1.0  0.5790419972752561  0.2463675345398138  0.19374966256103396  Uiso  ?  Ce
Ce1  1.0  0.6251245813713766  0.25018236104453145  0.1602720628421858  Uiso  ?  Ce
O1  1.0  0.596120477447832  0.2660683293454819  0.16751799015575863  Uiso  ?  O
O1  1.0  0.5624311268943267  0.2506296864611461  0.16311465962204372  Uiso  ?  O
O1  1.0  0.45033063892208114  0.2999289946813072  0.4126819009552667  Uiso  ?  O
O1  1.0  0.4028746061961936  0.3003955351660817  0.4402450744270137  Uiso  ?  O
O1  1.0  0.41536297722130044  0.2843195619361821  0.4040861118296865  Uiso  ?  O
Ce1  1.0  0.43346643808959234  0.30316507558249756  0.3788998164224233  Uiso  ?  Ce
Ce1  1.0  0.47996492011184266  0.3052175646445613  0.35331279724053977  Uiso  ?  Ce
O1  1.0  0.46524619551471397  0.28657956165940573  0.37822347492162806  Uiso  ?  O
O1  1.0  0.46569949458670234  0.3069813483973401  0.3263196721129681  Uiso  ?  O
O1  1.0  0.4738774051293187  0.2726367925931002  0.3432056675471922  Uiso  ?  O
O1  1.0  0.4158364812764093  0.3066010066389919  0.3517144857391241  Uiso  ?  O
O1  1.0  0.43057524883568915  0.2699141143906363  0.370729009008765  Uiso  ?  O
O1  1.0  0.4318640725223366  0.2921699897678334  0.3214462771911853  Uiso  ?  O
O1  1.0  0.4397637206497711  0.2566644475350877  0.33717715398473364  Uiso  ?  O
Ce1  1.0  0.45886722613453895  0.29582007423333856  0.2642751607899318  Uiso  ?  Ce
Ce1  1.0  0.4587861624821013  0.2765890135282629  0.3110821949236111  Uiso  ?  Ce
Ce1  1.0  0.505315107259748  0.2741415110461276  0.2865476583570112  Uiso  ?  Ce
O1  1.0  0.4754419094393187  0.292068942644087  0.2924961529989046  Uiso  ?  O
O1  1.0  0.48697411657660483  0.25677895899292613  0.30723058680173126  Uiso  ?  O
O1  1.0  0.4885974026803655  0.277008324599678  0.25524743619302803  Uiso  ?  O
O1  1.0  0.498697557786274  0.2441554294408504  0.2762137010120188  Uiso  ?  O
O1  1.0  0.44173541071490424  0.27644776343994976  0.2877741728156176  Uiso  ?  O
O1  1.0  0.4499407216783516  0.24250652681012372  0.30303486390580064  Uiso  ?  O
O1  1.0  0.4533948403946302  0.2631905379958955  0.2524346335399373  Uiso  ?  O
Ce1  1.0  0.5087534761369138  0.2937628074823996  0.23619028204728965  Uiso  ?  Ce
Ce1  1.0  0.48490347609620593  0.26249876254590326  0.1925225043949745  Uiso  ?  Ce
Ce1  1.0  0.4811714971581384  0.24582963650172335  0.24522433341222238  Uiso  ?  Ce
Ce1  1.0  0.5299476302264704  0.24519309813741796  0.2196583033404331  Uiso  ?  Ce
O1  1.0  0.49863960631281373  0.26095931182584137  0.2219860581037897  Uiso  ?  O
O1  1.0  0.5163768908043002  0.2476539715400251  0.19051134206976184  Uiso  ?  O
O1  1.0  0.4674368942745764  0.2490792743382194  0.21841851154002018  Uiso  ?  O
Ce1  1.0  0.5316976316284044  0.2654135750315082  0.16693114250596203  Uiso  ?  Ce
O1  1.0  0.35447471015949916  0.2987449923230578  0.46796634795338665  Uiso  ?  O
O1  1.0  0.30772181471192805  0.2978379134673173  0.4928772794202443  Uiso  ?  O
O1  1.0  0.3190879649599468  0.28414662916361977  0.4593103455848702  Uiso  ?  O
Ce1  1.0  0.3418482526375978  0.30063175336268205  0.4359712648263013  Uiso  ?  Ce
Ce1  1.0  0.38535903370938385  0.30133177558132607  0.4103423248979874  Uiso  ?  Ce
O1  1.0  0.3690523150991701  0.2845008839056227  0.43170383924183714  Uiso  ?  O
O1  1.0  0.3684867693257753  0.3043742222179629  0.38265294407651546  Uiso  ?  O
O1  1.0  0.37942744163946907  0.272574295511839  0.3970137074274384  Uiso  ?  O
O1  1.0  0.321443188178005  0.30181522462094235  0.406971465799058  Uiso  ?  O
O1  1.0  0.32960920333425453  0.26883065817186336  0.4266334783040263  Uiso  ?  O
O1  1.0  0.33370591676057565  0.28743677052470357  0.37368956430041034  Uiso  ?  O
O1  1.0  0.3457084854481913  0.2544204078977727  0.39197506565209134  Uiso  ?  O
Ce1  1.0  0.36256723426799414  0.2903831713107143  0.31736295492246186  Uiso  ?  Ce
Ce1  1.0  0.36395265903893403  0.27188950196206435  0.36689203108297225  Uiso  ?  Ce
Ce1  1.0  0.41039054376696626  0.2750537048416921  0.34590933579463284  Uiso  ?  Ce
O1  1.0  0.3835283364995636  0.28844476736358815  0.3474503736702261  Uiso  ?  O
O1  1.0  0.3918450597867862  0.2551044442464302  0.36487947933669973  Uiso  ?  O
O1  1.0  0.39333375477620736  0.2725601769978579  0.3127515013139626  Uiso  ?  O
O1  1.0  0.40530845599872584  0.24111406133690877  0.33207196669638817  Uiso  ?  O
O1  1.0  0.34583459343128015  0.273809271762584  0.3412340991570766  Uiso  ?  O
O1  1.0  0.35806820936101547  0.24306808368588984  0.35719710731897975  Uiso  ?  O
O1  1.0  0.3563940894326913  0.26147821753484457  0.30806686982546266  Uiso  ?  O
Ce1  1.0  0.4121451373500514  0.29361475393749775  0.2915718938852572  Uiso  ?  Ce
Ce1  1.0  0.3899059045703486  0.26360682247828604  0.24901346128361357  Uiso  ?  Ce
Ce1  1.0  0.38721089465984326  0.2429338934722617  0.3016613250407107  Uiso  ?  Ce
Ce1  1.0  0.43783364821212584  0.24518320892130688  0.27334203926487416  Uiso  ?  Ce
O1  1.0  0.40705843537596176  0.2602507767890522  0.27983020783774465  Uiso  ?  O
O1  1.0  0.4202367918934476  0.2469438664597924  0.24492270294955124  Uiso  ?  O
O1  1.0  0.3715099095118007  0.24502864782899206  0.2714671516722297  Uiso  ?  O
Ce1  1.0  0.43779951743626566  0.2642551098120851  0.2223759945598186  Uiso  ?  Ce
O1  1.0  0.20088631781777158  0.3095960161565297  0.582315257357673  Uiso  ?  O
O1  1.0  0.24676606644808508  0.3101795787947008  0.5568331484375522  Uiso  ?  O
O1  1.0  0.26043330503561163  0.29799287561857957  0.5202979697628796  Uiso  ?  O
O1  1.0  0.21337478114703792  0.2965889901791252  0.549608134803134  Uiso  ?  O
O1  1.0  0.22729502314084166  0.28093560633875664  0.5145358310582006  Uiso  ?  O
Ce1  1.0  0.24268453211506158  0.29906322248576034  0.4931076507516233  Uiso  ?  Ce
Ce1  1.0  0.29163862629367243  0.29987248540468303  0.4640803496579118  Uiso  ?  Ce
O1  1.0  0.27354024724415943  0.28130502003800484  0.487543376183022  Uiso  ?  O
O1  1.0  0.2730968911683116  0.30218446103098456  0.43759362395271123  Uiso  ?  O
O1  1.0  0.2835529624153996  0.2685233372098256  0.4557510779247904  Uiso  ?  O
O1  1.0  0.22756239950920926  0.3027162135788687  0.4638928548159876  Uiso  ?  O
O1  1.0  0.23627671959506288  0.271373176277059  0.48120505704041605  Uiso  ?  O
O1  1.0  0.2392689105367694  0.2848777880079384  0.42876837494822634  Uiso  ?  O
O1  1.0  0.24949889564820343  0.25229861290804545  0.4484753839257363  Uiso  ?  O
Ce1  1.0  0.2697855647249206  0.28879867369178247  0.37560520533379216  Uiso  ?  Ce
Ce1  1.0  0.2688855000492412  0.2706743913387508  0.42346253403369477  Uiso  ?  Ce
Ce1  1.0  0.3151224583747348  0.2709126208755136  0.39631792368274243  Uiso  ?  Ce
O1  1.0  0.28451859086707365  0.2875569160135872  0.4003252540932534  Uiso  ?  O
O1  1.0  0.2974931496078244  0.2542374280170441  0.42100132656550954  Uiso  ?  O
O1  1.0  0.30084450038929683  0.27633541535099304  0.3693696344446593  Uiso  ?  O
O1  1.0  0.30843740569641287  0.24183675781804945  0.3851572224202818  Uiso  ?  O
O1  1.0  0.24991111722735931  0.2741609832705024  0.39611508549448543  Uiso  ?  O
O1  1.0  0.26182087583340513  0.23974855314815946  0.41166354965332924  Uiso  ?  O
O1  1.0  0.2628720975339675  0.25762546329090297  0.3612145325642467  Uiso  ?  O
Ce1  1.0  0.3146719102836047  0.2882759838894032  0.34769183888382366  Uiso  ?  Ce
Ce1  1.0  0.29320065617476526  0.2629992726305621  0.306132136274236  Uiso  ?  Ce
Ce1  1.0  0.28963275101306835  0.24230371171969617  0.3535649655509612  Uiso  ?  Ce
Ce1  1.0  0.3397582553062102  0.24436821245036242  0.33018260376957326  Uiso  ?  Ce
O1  1.0  0.31125225242478927  0.25905555344881454  0.3332880849796958  Uiso  ?  O
O1  1.0  0.3229769041786205  0.2449165918127355  0.2986038089997594  Uiso  ?  O
O1  1.0  0.2765800639154657  0.24496973166748426  0.3298106461107633  Uiso  ?  O
Ce1  1.0  0.34275266583273883  0.26293464173551434  0.27569549967732443  Uiso  ?  Ce
O1  1.0  0.15354440493636126  0.3117495318759179  0.6110372197099114  Uiso  ?  O
O1  1.0  0.16503548338490448  0.2972852652290584  0.5762924506549694  Uiso  ?  O
Ce1  1.0  0.14687497606468886  0.29853235560292396  0.5467505878012504  Uiso  ?  Ce
Ce1  1.0  0.19505458360344413  0.2972655348335958  0.5195552988627093  Uiso  ?  Ce
O1  1.0  0.17984564835573594  0.28034797911261505  0.5421022313763162  Uiso  ?  O
O1  1.0  0.1790260540151728  0.3020496644633475  0.4911589334614462  Uiso  ?  O
O1  1.0  0.19090630905522796  0.2675841707241181  0.508889385632628  Uiso  ?  O
O1  1.0  0.15246315805514588  0.25458652139216303  0.5023578445020942  Uiso  ?  O
Ce1  1.0  0.17668481739931555  0.29031479513674635  0.4289011891186508  Uiso  ?  Ce
Ce1  1.0  0.17522270669667026  0.2696704141099671  0.4788979123693191  Uiso  ?  Ce
Ce1  1.0  0.2194914341643051  0.2680309223037538  0.451402848255272  Uiso  ?  Ce
O1  1.0  0.1918147855139987  0.2850165080501479  0.45731183944393206  Uiso  ?  O
O1  1.0  0.201745074120426  0.2549080493995289  0.4726885775163532  Uiso  ?  O
O1  1.0  0.20505430424834237  0.2719706055534684  0.42325433277326574  Uiso  ?  O
O1  1.0  0.21255155814535437  0.237320227490753  0.44139463893656417  Uiso  ?  O
O1  1.0  0.15823299130164947  0.2707198251009806  0.4520058954165955  Uiso  ?  O
O1  1.0  0.166688062928142  0.238611794369559  0.46788547595174884  Uiso  ?  O
O1  1.0  0.16903834158300557  0.259694617965584  0.418094597015899  Uiso  ?  O
Ce1  1.0  0.22055043435418206  0.28701128911374707  0.40081283263966916  Uiso  ?  Ce
Ce1  1.0  0.20066279208143464  0.26051104096793876  0.3576749731776934  Uiso  ?  Ce
Ce1  1.0  0.19756656493992858  0.23847943576599967  0.4149960255155838  Uiso  ?  Ce
Ce1  1.0  0.24418394398995744  0.2423764127487857  0.3861293201887193  Uiso  ?  Ce
O1  1.0  0.21532894293830737  0.2569752368316004  0.3926251246309462  Uiso  ?  O
O1  1.0  0.22822617924420863  0.2429270800462672  0.355147243046298  Uiso  ?  O
O1  1.0  0.1815957747935809  0.2420398591087675  0.3808941642584882  Uiso  ?  O
Ce1  1.0  0.24916593002142043  0.2602629927200996  0.33324649626728553  Uiso  ?  Ce
Ce1  1.0  0.14907137098179574  0.23881083529295977  0.4412003298288873  Uiso  ?  Ce
Ce1  1.0  0.1506248813415815  0.25647342500392944  0.38691588613690825  Uiso  ?  Ce
O1  1.0  0.7437757327151363  0.31075097141465513  0.42390275851231  Uiso  ?  O
O1  1.0  0.7560152285063275  0.2945184675531788  0.38777267354158285  Uiso  ?  O
O1  1.0  0.769922458555951  0.2843345688129197  0.3579372825666909  Uiso  ?  O
Ce1  1.0  0.7840258663207321  0.29911686924355674  0.3325314003184555  Uiso  ?  Ce
O1  1.0  0.7690547670803283  0.30375074954359027  0.3019987590251598  Uiso  ?  O
O1  1.0  0.7814351431946274  0.26941581853691077  0.32114641656496434  Uiso  ?  O
O1  1.0  0.7822662389257593  0.2857863376183994  0.2714205133820387  Uiso  ?  O
O1  1.0  0.791081876038479  0.25528400829627307  0.28606256577610556  Uiso  ?  O
O1  1.0  0.7925712270492854  0.27623330503110644  0.2362556770732464  Uiso  ?  O
O1  1.0  0.6490338618189941  0.30931532136906675  0.4816029631399956  Uiso  ?  O
O1  1.0  0.6945834644459754  0.3110533013364649  0.4515533750991089  Uiso  ?  O
O1  1.0  0.7091328003045501  0.29693257444995474  0.415522128416321  Uiso  ?  O
O1  1.0  0.6611816814246233  0.2970107331363314  0.4443690014921492  Uiso  ?  O
O1  1.0  0.6742695652544445  0.28023587743937456  0.40942135780469563  Uiso  ?  O
Ce1  1.0  0.6903462793002083  0.299493782005306  0.3863329439323396  Uiso  ?  Ce
Ce1  1.0  0.7391524487441952  0.29808944390511516  0.36161863198855393  Uiso  ?  Ce
O1  1.0  0.7175935968814455  0.283511199796322  0.38163503226154233  Uiso  ?  O
O1  1.0  0.7215762981535071  0.29860534301733466  0.33057857215745945  Uiso  ?  O
O1  1.0  0.7346329781679654  0.2656474961092751  0.3502125954155438  Uiso  ?  O
O1  1.0  0.6759763268714685  0.3006042666460239  0.35921476865910495  Uiso  ?  O
O1  1.0  0.6832362146265212  0.2681685198798215  0.37608608765296064  Uiso  ?  O
O1  1.0  0.6857366134965591  0.2834220783703339  0.32763668964558823  Uiso  ?  O
O1  1.0  0.697373648303153  0.2535035641893881  0.3424775704621214  Uiso  ?  O
Ce1  1.0  0.7208536113947297  0.2878504180478205  0.2673966676749025  Uiso  ?  Ce
Ce1  1.0  0.7168743003798526  0.2699159031556891  0.31875744564528563  Uiso  ?  Ce
Ce1  1.0  0.7639123895688129  0.2717997998732171  0.29450602575172147  Uiso  ?  Ce
O1  1.0  0.735416190450432  0.2852096063180914  0.29942344183246145  Uiso  ?  O
O1  1.0  0.7467724283227092  0.25312519000462413  0.3140687904182788  Uiso  ?  O
O1  1.0  0.7467341296515616  0.27415956341108094  0.26501710062445777  Uiso  ?  O
O1  1.0  0.7572259763041761  0.23925955234393242  0.2813911453091004  Uiso  ?  O
O1  1.0  0.7005461891048039  0.2726733506950378  0.2916253238108356  Uiso  ?  O
O1  1.0  0.7107621747961341  0.2369526353609905  0.3071587891003843  Uiso  ?  O
O1  1.0  0.7116147169458459  0.257625572077613  0.2546442910013543  Uiso  ?  O
Ce1  1.0  0.7631011437150891  0.2907987151234664  0.23908571834841183  Uiso  ?  Ce
Ce1  1.0  0.7408566214909714  0.26022015955682565  0.2004524463280431  Uiso  ?  Ce
Ce1  1.0  0.7419070031946154  0.24331396701997532  0.2522699238493366  Uiso  ?  Ce
Ce1  1.0  0.784880154733676  0.24433117291653408  0.2226054450165756  Uiso  ?  Ce
O1  1.0  0.7578056605697131  0.2568318230901979  0.2296076722827594  Uiso  ?  O
O1  1.0  0.7715922219420053  0.2444210040090392  0.19503145610584813  Uiso  ?  O
O1  1.0  0.7216523278129022  0.2456601395296223  0.22295637311329353  Uiso  ?  O
Ce1  1.0  0.7897040689633144  0.26154074436251096  0.17362428227760254  Uiso  ?  Ce
O1  1.0  0.5515290677349983  0.31010677099076744  0.5344348115587321  Uiso  ?  O
O1  1.0  0.5998780506865214  0.31074538629427667  0.5040464959953721  Uiso  ?  O
O1  1.0  0.6146862369395005  0.29680202151881907  0.47330140359103495  Uiso  ?  O
O1  1.0  0.5659188594264016  0.2942441032791032  0.501003992629993  Uiso  ?  O
O1  1.0  0.5796305749015259  0.27977306386010875  0.466178664235641  Uiso  ?  O
Ce1  1.0  0.5952903671092138  0.2947410132573965  0.4429263113352847  Uiso  ?  Ce
Ce1  1.0  0.641872320234889  0.29991295845763216  0.41508017131971975  Uiso  ?  Ce
O1  1.0  0.6242193612785002  0.28125398895143194  0.4377897235948713  Uiso  ?  O
O1  1.0  0.6292392387632283  0.30157110668558906  0.38660204335962733  Uiso  ?  O
O1  1.0  0.6380296447804943  0.2645413481228092  0.4081227653998554  Uiso  ?  O
O1  1.0  0.5778197887206513  0.3005986601866321  0.4160982482509985  Uiso  ?  O
O1  1.0  0.5880978299894863  0.2661246881169822  0.42994847877741027  Uiso  ?  O
O1  1.0  0.59151995059353  0.2846780758174822  0.3770675693261992  Uiso  ?  O
O1  1.0  0.6038694018169224  0.25155678287470556  0.397559759155942  Uiso  ?  O
Ce1  1.0  0.6219192249338404  0.2880012924957993  0.32362478416298956  Uiso  ?  Ce
Ce1  1.0  0.6227730330696306  0.26832416899861955  0.37539555143668746  Uiso  ?  Ce
Ce1  1.0  0.6678831613938504  0.27011384360045454  0.3456277392476995  Uiso  ?  Ce
O1  1.0  0.6402492883224387  0.28499700140120343  0.3541830720127191  Uiso  ?  O
O1  1.0  0.6503902246518739  0.25086077584805355  0.3687134104565623  Uiso  ?  O
O1  1.0  0.6496147384752533  0.26989487636713105  0.31809931656121543  Uiso  ?  O
O1  1.0  0.6617998127704282  0.2402249763974644  0.3346239455056887  Uiso  ?  O
O1  1.0  0.6037579247493339  0.26996697995345126  0.34678031699555567  Uiso  ?  O
O1  1.0  0.6163548596540505  0.23861826603133376  0.36475208561591627  Uiso  ?  O
O1  1.0  0.6173757761810906  0.25590408841961165  0.31145817590011515  Uiso  ?  O
Ce1  1.0  0.6705881390506265  0.28769753105695106  0.29557385927396984  Uiso  ?  Ce
Ce1  1.0  0.6490971641479617  0.25893528304983066  0.2562330086138159  Uiso  ?  Ce
Ce1  1.0  0.6459260306591197  0.24066274382483152  0.30673553865976433  Uiso  ?  Ce
Ce1  1.0  0.6927129166981916  0.2402871764916694  0.2797093836048472  Uiso  ?  Ce
O1  1.0  0.6645178377723386  0.2574283609698664  0.2809619172113168  Uiso  ?  O
O1  1.0  0.6766149012831745  0.24170938550887897  0.2498198067350292  Uiso  ?  O
O1  1.0  0.6298551538197753  0.2401068225579331  0.27754657640002706  Uiso  ?  O
Ce1  1.0  0.694564836023  0.25734159405734025  0.22852235549257557  Uiso  ?  Ce
O1  1.0  0.45880472693453905  0.30852058751176464  0.5911727278863146  Uiso  ?  O
O1  1.0  0.5059547030855064  0.3062202362737497  0.5608322422716899  Uiso  ?  O
O1  1.0  0.5160992740801461  0.2927038917636172  0.5259165182368636  Uiso  ?  O
O1  1.0  0.47092043673842654  0.293825091324516  0.5547211133583186  Uiso  ?  O
O1  1.0  0.47222771506411154  0.31072971439715324  0.5032995465280157  Uiso  ?  O
O1  1.0  0.48424708540669315  0.2773979824115474  0.5217709892810366  Uiso  ?  O
Ce1  1.0  0.5017710588257552  0.29546106906054515  0.4995381017094909  Uiso  ?  Ce
Ce1  1.0  0.5490753657251315  0.29630496877676626  0.4711000066965807  Uiso  ?  Ce
O1  1.0  0.520072587004669  0.3104227485985495  0.47458754394793434  Uiso  ?  O
O1  1.0  0.5284157039783259  0.27719037514726813  0.49499464791186826  Uiso  ?  O
O1  1.0  0.5329619900623767  0.2982433586409181  0.43881501388609884  Uiso  ?  O
O1  1.0  0.5430519254444729  0.26299651838478494  0.458625341297277  Uiso  ?  O
O1  1.0  0.48373177576234  0.29368983062319376  0.4693401795673412  Uiso  ?  O
O1  1.0  0.49357995733923427  0.2626892795096871  0.488541860564431  Uiso  ?  O
O1  1.0  0.4966146617814362  0.28288732114360865  0.43270188585026176  Uiso  ?  O
O1  1.0  0.506117689751897  0.25172830609666286  0.4531148552716919  Uiso  ?  O
Ce1  1.0  0.5281764952844881  0.2866661546243923  0.37830880548564083  Uiso  ?  Ce
Ce1  1.0  0.5258872319489818  0.2647903198968266  0.43087743502979386  Uiso  ?  Ce
Ce1  1.0  0.57418016078995  0.26848646980888125  0.40243218249129437  Uiso  ?  Ce
O1  1.0  0.5441773728159642  0.2816816726547937  0.40794942093592196  Uiso  ?  O
O1  1.0  0.5544905781626182  0.25038509401085596  0.42680099345434896  Uiso  ?  O
O1  1.0  0.5589889600104588  0.2682811259691697  0.3723957567338276  Uiso  ?  O
O1  1.0  0.5685583843933419  0.23625160187904953  0.39062456399974593  Uiso  ?  O
O1  1.0  0.507735416443801  0.2680091767476082  0.3997855436397797  Uiso  ?  O
O1  1.0  0.5201564818173048  0.25455147247296994  0.36975916620118326  Uiso  ?  O
Ce1  1.0  0.5735471066216353  0.28465343773253576  0.35124586513304096  Uiso  ?  Ce
Ce1  1.0  0.5524156083607841  0.2588706732479286  0.309861583925922  Uiso  ?  Ce
Ce1  1.0  0.5518489923791714  0.23479361032112553  0.361629657905242  Uiso  ?  Ce
Ce1  1.0  0.5968211029665839  0.2385650285341839  0.33376547528983064  Uiso  ?  Ce
O1  1.0  0.5667324138109973  0.2544124701925357  0.33773430175999225  Uiso  ?  O
O1  1.0  0.5788578454671613  0.23989533976269808  0.3063777736333472  Uiso  ?  O
O1  1.0  0.5333797820648494  0.23843674848410562  0.3315281988264742  Uiso  ?  O
Ce1  1.0  0.5984445684366702  0.2569942458152249  0.28346008166556297  Uiso  ?  Ce
O1  1.0  0.36428023195226084  0.30451120964892214  0.6436269164716047  Uiso  ?  O
O1  1.0  0.41050304122219794  0.3032084487961879  0.6160628079385659  Uiso  ?  O
O1  1.0  0.4219385231733373  0.2932694594940787  0.5824607271712747  Uiso  ?  O
O1  1.0  0.3733818741624365  0.28717213770433536  0.610761076736634  Uiso  ?  O
O1  1.0  0.37570066482585346  0.31208105527093616  0.5589327245219508  Uiso  ?  O
O1  1.0  0.38616433171366066  0.27685913284529584  0.5762520376179603  Uiso  ?  O
Ce1  1.0  0.40679190992264536  0.29503623171491195  0.5530035011333109  Uiso  ?  Ce
Ce1  1.0  0.4544978719980595  0.2934810316164012  0.5271148163647053  Uiso  ?  Ce
O1  1.0  0.4248502666764436  0.3110804174627066  0.5304126310483924  Uiso  ?  O
O1  1.0  0.43706259318262164  0.27593860613574694  0.54888416164211  Uiso  ?  O
O1  1.0  0.43795962880341655  0.2952413122586934  0.49442058693059876  Uiso  ?  O
O1  1.0  0.44760875109001275  0.2654585516628055  0.5141185873691027  Uiso  ?  O
O1  1.0  0.3878020422493433  0.2947766787023517  0.5242488312997647  Uiso  ?  O
O1  1.0  0.4000712291265126  0.2612154098411492  0.5407329141289442  Uiso  ?  O
O1  1.0  0.4006249226896348  0.28196324185491856  0.49139405729245184  Uiso  ?  O
O1  1.0  0.41484977085979524  0.24904214758601054  0.5095351909166794  Uiso  ?  O
Ce1  1.0  0.4281392090168928  0.2821729058494382  0.4328182933043642  Uiso  ?  Ce
Ce1  1.0  0.43119243321893896  0.26603350175433427  0.48550117025973627  Uiso  ?  Ce
Ce1  1.0  0.47769371320652626  0.2649473801247971  0.4584203006310085  Uiso  ?  Ce
O1  1.0  0.44879650451095643  0.28194035359309527  0.46337192342187605  Uiso  ?  O
O1  1.0  0.45974116689384964  0.24906942801162937  0.4793055118175637  Uiso  ?  O
O1  1.0  0.46181628847576733  0.2696635345431783  0.42921040891625045  Uiso  ?  O
O1  1.0  0.413736106277243  0.26647063846141705  0.45611070481100036  Uiso  ?  O
O1  1.0  0.426774113367168  0.25104622154941303  0.4201672287989932  Uiso  ?  O
Ce1  1.0  0.4796800378319101  0.28302245812296006  0.40530311058954016  Uiso  ?  Ce
Ce1  1.0  0.45417468820180396  0.25539071306479494  0.36646687174186215  Uiso  ?  Ce
Ce1  1.0  0.45427048941069725  0.23698439380957545  0.4185522789080235  Uiso  ?  Ce
Ce1  1.0  0.5040642264222588  0.23599205032989679  0.3878396406396416  Uiso  ?  Ce
O1  1.0  0.4726380612215031  0.2540647100045402  0.3946148279785914  Uiso  ?  O
O1  1.0  0.4853386233641189  0.24021022572853876  0.36215926470974913  Uiso  ?  O
O1  1.0  0.43872901866891795  0.237745417035975  0.3885397210701631  Uiso  ?  O
Ce1  1.0  0.5020403303412573  0.2559102227433173  0.34030260915907534  Uiso  ?  Ce
O1  1.0  0.267188312567172  0.3066745871652753  0.6977153388700675  Uiso  ?  O
O1  1.0  0.3186245143318765  0.3027105970490541  0.6705682939254725  Uiso  ?  O
O1  1.0  0.3272476787069961  0.2878566371435445  0.6364999386688867  Uiso  ?  O
O1  1.0  0.2813734674439763  0.2906014781642841  0.6657753895043407  Uiso  ?  O
O1  1.0  0.27942915452422357  0.30768216662320613  0.6148893885209998  Uiso  ?  O
O1  1.0  0.2919530863473269  0.2727549100394268  0.6341293332357808  Uiso  ?  O
Ce1  1.0  0.31378364537892645  0.3090572619405443  0.5554015819399705  Uiso  ?  Ce
Ce1  1.0  0.3110542388326804  0.29262489498665906  0.6113765059748711  Uiso  ?  Ce
Ce1  1.0  0.35901556675246765  0.29153989411132775  0.5823061026532896  Uiso  ?  Ce
O1  1.0  0.33151151546868723  0.31048322866913414  0.5898693179352738  Uiso  ?  O
O1  1.0  0.3390863955671403  0.2761618768168013  0.603416722746064  Uiso  ?  O
O1  1.0  0.3407835215326197  0.29518486202107386  0.5538537159564199  Uiso  ?  O
O1  1.0  0.34871987248580344  0.2624553727460863  0.5692264057299782  Uiso  ?  O
O1  1.0  0.2939044204463747  0.2942668736623546  0.5803679494618864  Uiso  ?  O
O1  1.0  0.30500168385910303  0.2620049021668967  0.5991334065323437  Uiso  ?  O
O1  1.0  0.3052597206863518  0.2796305969867968  0.5485272207853861  Uiso  ?  O
O1  1.0  0.3153982004838337  0.24439361862351  0.5627612508856216  Uiso  ?  O
Ce1  1.0  0.36078042320922976  0.313236917833319  0.529221745507926  Uiso  ?  Ce
Ce1  1.0  0.336183416030648  0.2798549029278512  0.4862517164922536  Uiso  ?  Ce
Ce1  1.0  0.33482508910487185  0.2633210602460687  0.5424193026045847  Uiso  ?  Ce
Ce1  1.0  0.3834822254806482  0.26487250817967567  0.5122194964295488  Uiso  ?  Ce
O1  1.0  0.3533787414816559  0.27989730636664645  0.5201499015391635  Uiso  ?  O
O1  1.0  0.36218317182433557  0.2468250608231426  0.5364016416020242  Uiso  ?  O
O1  1.0  0.36833631047121107  0.264201065172938  0.4838164699011137  Uiso  ?  O
O1  1.0  0.3183498302816592  0.2643043066913711  0.5083137103375293  Uiso  ?  O
O1  1.0  0.32691954557551756  0.25078440584392503  0.4788251603463182  Uiso  ?  O
Ce1  1.0  0.38420553559029524  0.2825227208187621  0.46128314439481616  Uiso  ?  Ce
Ce1  1.0  0.3621785595429575  0.2543249216510447  0.4191636319673695  Uiso  ?  Ce
O1  1.0  0.379593006583269  0.25260268600132074  0.44958688525733775  Uiso  ?  O
O1  1.0  0.38947807003738105  0.23632782367994035  0.41608360112940823  Uiso  ?  O
O1  1.0  0.3427047640460142  0.2385956448774287  0.4442140639714805  Uiso  ?  O
Ce1  1.0  0.4111764135221886  0.2550777847403829  0.39451709068053037  Uiso  ?  Ce
O1  1.0  0.17521267828299042  0.30211711252921347  0.7551762456299912  Uiso  ?  O
O1  1.0  0.2202583990901827  0.30115266286181736  0.725060692755553  Uiso  ?  O
O1  1.0  0.23086576311814988  0.287487862030258  0.6949482952453343  Uiso  ?  O
O1  1.0  0.1841500963876605  0.2869693242718796  0.7210591601076801  Uiso  ?  O
O1  1.0  0.18347920930753012  0.30762406384686164  0.6705219930000059  Uiso  ?  O
O1  1.0  0.1972399110575063  0.276666418286765  0.6883135082109691  Uiso  ?  O
Ce1  1.0  0.21613848304673805  0.30793928111402646  0.6165158041726004  Uiso  ?  Ce
Ce1  1.0  0.21625416275225187  0.289588179534991  0.6656338869810161  Uiso  ?  Ce
Ce1  1.0  0.263198358229003  0.29027433125001945  0.6370253745658839  Uiso  ?  Ce
O1  1.0  0.23615519791319742  0.3046132919336286  0.6399191987493963  Uiso  ?  O
O1  1.0  0.24458331918562665  0.2724479112813776  0.6612048331322241  Uiso  ?  O
O1  1.0  0.2459792720419439  0.2918472066700616  0.6054384764997407  Uiso  ?  O
O1  1.0  0.25744695096593634  0.2600361220219405  0.6253582590555604  Uiso  ?  O
O1  1.0  0.19690671872578155  0.29105222772359496  0.6356350929910698  Uiso  ?  O
O1  1.0  0.21264203674412507  0.2591516654247444  0.651927322130318  Uiso  ?  O
O1  1.0  0.21101440120449869  0.27725497643022495  0.5985263826468877  Uiso  ?  O
O1  1.0  0.22230122234106595  0.24311013368046583  0.6192420598756  Uiso  ?  O
Ce1  1.0  0.2654862518199052  0.3105351483354153  0.5860592206026122  Uiso  ?  Ce
Ce1  1.0  0.24115300530973605  0.2805720412982415  0.5440420920833325  Uiso  ?  Ce
Ce1  1.0  0.2396237067083445  0.25883349248246645  0.5982123241298465  Uiso  ?  Ce
Ce1  1.0  0.2877696998539619  0.25941941991658085  0.5693466955430455  Uiso  ?  Ce
O1  1.0  0.25673360810633633  0.27632451755206167  0.5745530328569309  Uiso  ?  O
O1  1.0  0.2719941953646164  0.2456716961954504  0.5909525922724437  Uiso  ?  O
O1  1.0  0.27214947386595173  0.26513166361790286  0.5393325879730356  Uiso  ?  O
O1  1.0  0.22360336099854533  0.26353780052109443  0.5664389791794538  Uiso  ?  O
O1  1.0  0.23918004236035736  0.2521666754112032  0.5328634832885767  Uiso  ?  O
Ce1  1.0  0.29099260118918346  0.2798163009024678  0.5162072500523623  Uiso  ?  Ce
Ce1  1.0  0.26555545774379646  0.25166826213493  0.47628953510200717  Uiso  ?  Ce
O1  1.0  0.28173735735919836  0.2502019552984287  0.5052763707990664  Uiso  ?  O
O1  1.0  0.296890275557108  0.2360958418029641  0.4690284120010868  Uiso  ?  O
Ce1  1.0  0.31519594476580143  0.25429972092325026  0.44925959798178006  Uiso  ?  Ce
Ce1  1.0  0.16915219385004365  0.2919322156436998  0.692172172515602  Uiso  ?  Ce
O1  1.0  0.15002722773709098  0.27162733112854004  0.7118060922550793  Uiso  ?  O
O1  1.0  0.15345551438221322  0.29122689265346735  0.6650021800193933  Uiso  ?  O
O1  1.0  0.16519246205593052  0.25800209490545994  0.6807874476399891  Uiso  ?  O
Ce1  1.0  0.17018014470961196  0.30791971614890745  0.6410893784862104  Uiso  ?  Ce
Ce1  1.0  0.14722624473949744  0.27632713671992704  0.5982446323520324  Uiso  ?  Ce
Ce1  1.0  0.14666062993625237  0.26096301343105077  0.6484965799236311  Uiso  ?  Ce
Ce1  1.0  0.19176614265237635  0.2603866846711978  0.6241903944838401  Uiso  ?  Ce
O1  1.0  0.1647302424057623  0.2776218009013473  0.6267558417767988  Uiso  ?  O
O1  1.0  0.1755667436999938  0.24490259036773193  0.6466391072130804  Uiso  ?  O
O1  1.0  0.17731132931115937  0.2620719866246909  0.5943116702208703  Uiso  ?  O
Ce1  1.0  0.19415009064186065  0.27950050907914215  0.5729926122885016  Uiso  ?  Ce
Ce1  1.0  0.16949194960255773  0.2529407980759103  0.5291186517025933  Uiso  ?  Ce
O1  1.0  0.18740586541165943  0.24836536725952252  0.5616450299293531  Uiso  ?  O
Ce1  1.0  0.21866931691161562  0.24891033421594524  0.5024326166286313  Uiso  ?  Ce
O1  1.0  0.7147924962950167  0.30260714457302984  0.5930326389680225  Uiso  ?  O
O1  1.0  0.7604970909288341  0.3021734566447483  0.5665864554174874  Uiso  ?  O
O1  1.0  0.7738729530335764  0.2889436180249913  0.5346045255971111  Uiso  ?  O
O1  1.0  0.727637450554735  0.2882790628085669  0.5588439232311233  Uiso  ?  O
O1  1.0  0.7306601618942705  0.3042122167547218  0.5109238876113815  Uiso  ?  O
O1  1.0  0.7433896938923306  0.2745371409900908  0.5290725222113087  Uiso  ?  O
Ce1  1.0  0.7591199850996173  0.30756941447430564  0.45191780451051966  Uiso  ?  Ce
Ce1  1.0  0.7567293684282728  0.29248420210116205  0.5043157863006327  Uiso  ?  Ce
O1  1.0  0.7768740612983608  0.30915969350898787  0.48221164189940524  Uiso  ?  O
O1  1.0  0.7897315877818708  0.27707974177268335  0.4984888772916511  Uiso  ?  O
O1  1.0  0.7873812632275293  0.29393032233003197  0.4481823480919817  Uiso  ?  O
O1  1.0  0.7421492731500964  0.29309812893474013  0.4765475924401447  Uiso  ?  O
O1  1.0  0.7532139443325685  0.2588210669843595  0.4941684984951557  Uiso  ?  O
O1  1.0  0.7540210340635577  0.27712037412878654  0.4390638427940293  Uiso  ?  O
O1  1.0  0.7652822136657669  0.2461689059186367  0.4599541588482337  Uiso  ?  O
Ce1  1.0  0.7857485313048992  0.28241704272993096  0.38251106631081955  Uiso  ?  Ce
Ce1  1.0  0.780319635104093  0.2638212098881688  0.43565152803713947  Uiso  ?  Ce
O1  1.0  0.7679884062779815  0.2661641778857446  0.4060122636609707  Uiso  ?  O
O1  1.0  0.7797772215316345  0.2511593684381323  0.3759207974916632  Uiso  ?  O
O1  1.0  0.7904649601481755  0.23635435459581805  0.3378462226601278  Uiso  ?  O
O1  1.0  0.6181669175450752  0.299823011146553  0.6526877634076634  Uiso  ?  O
O1  1.0  0.6662721605563703  0.3019257040835477  0.6207284623298973  Uiso  ?  O
O1  1.0  0.6808231619333084  0.28717683942590516  0.5877949217956094  Uiso  ?  O
O1  1.0  0.6313504523315482  0.28694495812078274  0.6162931194736243  Uiso  ?  O
O1  1.0  0.6342257815041192  0.3048230594274896  0.5652936775665648  Uiso  ?  O
O1  1.0  0.6428453114525327  0.27304534557650806  0.581154337401601  Uiso  ?  O
Ce1  1.0  0.6664634156376134  0.31009192135032515  0.5087587044472298  Uiso  ?  Ce
Ce1  1.0  0.6622929421796679  0.28980791018168683  0.5613250051836114  Uiso  ?  Ce
Ce1  1.0  0.7073931637793984  0.2888484440411038  0.5336625246698615  Uiso  ?  Ce
O1  1.0  0.6794083517328992  0.30516476965526923  0.5371846423553192  Uiso  ?  O
O1  1.0  0.6940638703692202  0.2722112334520482  0.555082954086045  Uiso  ?  O
O1  1.0  0.6931423505308435  0.2902734885618404  0.5026056849213824  Uiso  ?  O
O1  1.0  0.7032092439113031  0.25657554997328413  0.5203942025669415  Uiso  ?  O
O1  1.0  0.6480033690981942  0.29205153395123645  0.5309549563668048  Uiso  ?  O
O1  1.0  0.6568650576185328  0.26142835425482136  0.5497360629928122  Uiso  ?  O
O1  1.0  0.6583527445658401  0.27736628614612985  0.4971357183146676  Uiso  ?  O
O1  1.0  0.6708763662025751  0.24492851264180582  0.5164889589855681  Uiso  ?  O
Ce1  1.0  0.7124240539928349  0.3074356185756206  0.47987715230856676  Uiso  ?  Ce
Ce1  1.0  0.6896860591088746  0.27880032343447964  0.44082420515129533  Uiso  ?  Ce
Ce1  1.0  0.6879352818885218  0.2619752058942237  0.491348001957853  Uiso  ?  Ce
Ce1  1.0  0.736116993983016  0.26295284741939084  0.461739900405496  Uiso  ?  Ce
O1  1.0  0.7070657928435924  0.278914481605684  0.46816029934472053  Uiso  ?  O
O1  1.0  0.7185184999499177  0.24567134223852918  0.48686001313836164  Uiso  ?  O
O1  1.0  0.718373115707616  0.2635414808613569  0.43520356423026474  Uiso  ?  O
O1  1.0  0.6731635611219997  0.26158866176100715  0.46296449974890613  Uiso  ?  O
O1  1.0  0.6823908247522433  0.24646174942540075  0.43137467030326854  Uiso  ?  O
Ce1  1.0  0.7394169700635399  0.2811568676281207  0.41233997255504873  Uiso  ?  Ce
Ce1  1.0  0.7126993065011196  0.25097634361197013  0.37061680831004956  Uiso  ?  Ce
O1  1.0  0.7323367902282232  0.2511747592486647  0.400938149536363  Uiso  ?  O
Ce1  1.0  0.7602096562250512  0.25223364819502425  0.34390606593816164  Uiso  ?  Ce
O1  1.0  0.5271868687079729  0.30037961117254086  0.7048191901216532  Uiso  ?  O
O1  1.0  0.5713035170668147  0.30123928746935347  0.6799891613945419  Uiso  ?  O
O1  1.0  0.5862776045072368  0.28770428681568366  0.6443689489627901  Uiso  ?  O
O1  1.0  0.5352846378584386  0.285772218267742  0.672185787446759  Uiso  ?  O
O1  1.0  0.541540860430598  0.3032285146328471  0.6181731067872299  Uiso  ?  O
O1  1.0  0.5512017926165529  0.26937764676858417  0.6393005716898046  Uiso  ?  O
Ce1  1.0  0.5713002825908087  0.30471734819874136  0.5641650144507023  Uiso  ?  Ce
Ce1  1.0  0.5673987963418691  0.28421259221980877  0.6137199980648604  Uiso  ?  Ce
Ce1  1.0  0.6172878450398972  0.28875917404383966  0.5863337237993896  Uiso  ?  Ce
O1  1.0  0.5884058164760517  0.30317762218992195  0.5925995605789202  Uiso  ?  O
O1  1.0  0.5985121280685529  0.27101339411705205  0.6080901889306575  Uiso  ?  O
O1  1.0  0.5980782996768381  0.2899605112964807  0.5555091361014498  Uiso  ?  O
O1  1.0  0.6088848270762861  0.2611518591992393  0.5743610755088615  Uiso  ?  O
O1  1.0  0.5536133753651592  0.2940137167570208  0.5850603332529127  Uiso  ?  O
O1  1.0  0.5626943413804776  0.25330280148413314  0.6039757451452832  Uiso  ?  O
O1  1.0  0.5669498098222644  0.27522345412039717  0.5512918757331132  Uiso  ?  O
O1  1.0  0.5737058066419086  0.24159822041110618  0.5695322181576733  Uiso  ?  O
Ce1  1.0  0.618411772085484  0.3057628543873114  0.5369436760208128  Uiso  ?  Ce
Ce1  1.0  0.5948391242370564  0.27769059206139035  0.4930976180393941  Uiso  ?  Ce
Ce1  1.0  0.5933147659704349  0.2599668576193129  0.5445914949516502  Uiso  ?  Ce
Ce1  1.0  0.640420179141404  0.2605737843814225  0.5194687964369451  Uiso  ?  Ce
O1  1.0  0.6110834910048866  0.274363587865612  0.5258263572009882  Uiso  ?  O
O1  1.0  0.6238023047458368  0.2429628811671616  0.5416088132925478  Uiso  ?  O
O1  1.0  0.6263688347224877  0.262182757159871  0.4896105964822448  Uiso  ?  O
O1  1.0  0.5765531274457348  0.2624495588301336  0.518374246237674  Uiso  ?  O
O1  1.0  0.5897877792439846  0.24807323315537513  0.48164927439015454  Uiso  ?  O
Ce1  1.0  0.6431138551726143  0.28053936609380253  0.4665318457031393  Uiso  ?  Ce
Ce1  1.0  0.6199761578246987  0.2507596320071957  0.4240082947182751  Uiso  ?  Ce
O1  1.0  0.6389216003065276  0.24510442409040864  0.45548332327250424  Uiso  ?  O
Ce1  1.0  0.6680149709207226  0.24979977135185022  0.4018283076988  Uiso  ?  Ce
O1  1.0  0.4186554449907044  0.31177787045509237  0.7930465347692909  Uiso  ?  O
O1  1.0  0.43202600168422145  0.2981053127556866  0.7620863850815595  Uiso  ?  O
O1  1.0  0.4773244972764635  0.2992889059814584  0.7327155141909859  Uiso  ?  O
O1  1.0  0.48960261850238723  0.2833391519838594  0.6979106101548821  Uiso  ?  O
O1  1.0  0.44134885695726783  0.2846769380547125  0.7266981556833702  Uiso  ?  O
O1  1.0  0.44411143824285676  0.30140494016578684  0.6737521060021632  Uiso  ?  O
O1  1.0  0.45628635958445396  0.2681164509411888  0.690294105955996  Uiso  ?  O
Ce1  1.0  0.47362061736072014  0.30467039693571324  0.6189812778680046  Uiso  ?  Ce
Ce1  1.0  0.475672667492601  0.28551642264474525  0.6681103726043562  Uiso  ?  Ce
Ce1  1.0  0.523955220045313  0.2839697134450366  0.6442295801010914  Uiso  ?  Ce
O1  1.0  0.49510674296856955  0.3017177993016888  0.6471442677277881  Uiso  ?  O
O1  1.0  0.5009671241849956  0.27155252080699843  0.6646511094659474  Uiso  ?  O
O1  1.0  0.5051184194614586  0.28745731181817913  0.6131232635587919  Uiso  ?  O
O1  1.0  0.5131716961832858  0.2566546974471298  0.6294654451654352  Uiso  ?  O
O1  1.0  0.4562883132989331  0.288127461393614  0.6411868178597109  Uiso  ?  O
O1  1.0  0.46867905267008886  0.2561705615774352  0.6572083271215357  Uiso  ?  O
O1  1.0  0.46880471161227016  0.2731573194859458  0.6085933929832267  Uiso  ?  O
O1  1.0  0.4800766274918963  0.24391803831953746  0.6259083026074528  Uiso  ?  O
Ce1  1.0  0.5218022638865815  0.305315728322953  0.5919706049239116  Uiso  ?  Ce
Ce1  1.0  0.49823711547125876  0.27426552667241894  0.5516167319122786  Uiso  ?  Ce
Ce1  1.0  0.5011609070538339  0.25947134552433054  0.6019147855344594  Uiso  ?  Ce
Ce1  1.0  0.5459286202512315  0.25855273235109744  0.5738866417757372  Uiso  ?  Ce
O1  1.0  0.5143206073656302  0.2752735542059037  0.5797533123776788  Uiso  ?  O
O1  1.0  0.5280308258232844  0.24165405274266125  0.5984998385299062  Uiso  ?  O
O1  1.0  0.5283662564870013  0.25943051227814223  0.5446672126171366  Uiso  ?  O
O1  1.0  0.4802227694884149  0.2602737047658699  0.5720560311636025  Uiso  ?  O
O1  1.0  0.4941854947595436  0.2494549147535875  0.5369725744069048  Uiso  ?  O
Ce1  1.0  0.545395508623003  0.27615740671082  0.5236502539983312  Uiso  ?  Ce
Ce1  1.0  0.5247802327474491  0.2463941683380221  0.47959942654494503  Uiso  ?  Ce
O1  1.0  0.5398906183512269  0.24666474648905828  0.5100339406411053  Uiso  ?  O
Ce1  1.0  0.5719702082334097  0.2507191701579252  0.4550267693498018  Uiso  ?  Ce
O1  1.0  0.37123188891494097  0.31195405818075644  0.8230132435593593  Uiso  ?  O
O1  1.0  0.32093382069343684  0.30908743539462696  0.8479312885361382  Uiso  ?  O
O1  1.0  0.3352973028218915  0.2953529507954203  0.8158789364763865  Uiso  ?  O
O1  1.0  0.37996694942559633  0.2967080795490848  0.7880879362731329  Uiso  ?  O
O1  1.0  0.3926451188449465  0.28309242045926314  0.752863851202367  Uiso  ?  O
O1  1.0  0.3449533963710931  0.2808985349858936  0.7826334213042282  Uiso  ?  O
O1  1.0  0.3501471170574749  0.30180306512187477  0.7307124573769497  Uiso  ?  O
O1  1.0  0.3603077828533632  0.26703089412027886  0.7476751888836567  Uiso  ?  O
Ce1  1.0  0.37998726648659237  0.3009810968582561  0.6750835214911268  Uiso  ?  Ce
Ce1  1.0  0.37770735091752644  0.2858915530349455  0.7261738595480418  Uiso  ?  Ce
Ce1  1.0  0.4271177008714134  0.28183932982826215  0.6997860563080787  Uiso  ?  Ce
O1  1.0  0.39654413318943404  0.3001825116836638  0.7021638877222007  Uiso  ?  O
O1  1.0  0.4102510162668794  0.27115424999363935  0.719379043657056  Uiso  ?  O
O1  1.0  0.4087836690830399  0.2889048261295195  0.6691599188026195  Uiso  ?  O
O1  1.0  0.42233650248556653  0.2543115164512459  0.6867367473825324  Uiso  ?  O
O1  1.0  0.3633785016458984  0.28548759537743307  0.6970173714748216  Uiso  ?  O
O1  1.0  0.37191910672430517  0.25085625043047166  0.7137377768739263  Uiso  ?  O
O1  1.0  0.37329236549342537  0.27044300359889495  0.6618909226604892  Uiso  ?  O
O1  1.0  0.38435924112632847  0.238486809413806  0.6809654305187752  Uiso  ?  O
Ce1  1.0  0.42739560158451717  0.3040349259946276  0.6436345345343225  Uiso  ?  Ce
Ce1  1.0  0.4058429298051951  0.2751084423148487  0.601550283713521  Uiso  ?  Ce
Ce1  1.0  0.40220340793531373  0.2548665461489778  0.6566445677321936  Uiso  ?  Ce
Ce1  1.0  0.44997824914571877  0.2563735643968251  0.6291084174979087  Uiso  ?  Ce
O1  1.0  0.4203852704918046  0.2710010860799604  0.6358335716091615  Uiso  ?  O
O1  1.0  0.4346508223127545  0.2391528364758432  0.6535509100583893  Uiso  ?  O
O1  1.0  0.434332825024744  0.2563309167452819  0.6011800940209538  Uiso  ?  O
O1  1.0  0.3889412192873106  0.258039757433522  0.6290228010926469  Uiso  ?  O
O1  1.0  0.39740727540884113  0.24481952838083165  0.5924990373609696  Uiso  ?  O
Ce1  1.0  0.4518184716799599  0.2735523065327596  0.5793503021877036  Uiso  ?  Ce
Ce1  1.0  0.4287262556320025  0.24757041778066627  0.5377098258255897  Uiso  ?  Ce
O1  1.0  0.44339697254470734  0.24707982012467777  0.5650524596241385  Uiso  ?  O
Ce1  1.0  0.4799652029495347  0.24581388839591398  0.5079062140790845  Uiso  ?  Ce
Ce1  1.0  0.2577667419347167  0.30956681361959115  0.8482367149775821  Uiso  ?  Ce
Ce1  1.0  0.3068987033589347  0.3133556166618313  0.8198718378642299  Uiso  ?  Ce
O1  1.0  0.2890083064353719  0.2958184482918376  0.8445282255204016  Uiso  ?  O
O1  1.0  0.30157536724043754  0.27943490057030396  0.8084883958176446  Uiso  ?  O
O1  1.0  0.25426418221773694  0.2803293627492581  0.837325675857753  Uiso  ?  O
O1  1.0  0.25338985796206065  0.29802113248159257  0.785050799463202  Uiso  ?  O
O1  1.0  0.264667765817481  0.2669562638120927  0.8013602824173146  Uiso  ?  O
Ce1  1.0  0.2845031300520706  0.3001433839584591  0.7306576406259321  Uiso  ?  Ce
Ce1  1.0  0.2838123886696267  0.28202385114234046  0.7769472675380797  Uiso  ?  Ce
Ce1  1.0  0.3343978030004335  0.28192422792182714  0.7558169201591309  Uiso  ?  Ce
O1  1.0  0.3034039267556679  0.2968062970557652  0.7583753971134931  Uiso  ?  O
O1  1.0  0.31265093358477986  0.2675740344117067  0.7755723940957043  Uiso  ?  O
O1  1.0  0.31442600645274543  0.2851732490693867  0.724441584320235  Uiso  ?  O
O1  1.0  0.32410522536498904  0.252522418024002  0.7387042740054557  Uiso  ?  O
O1  1.0  0.26715708106912556  0.2840480204112224  0.749160118591575  Uiso  ?  O
O1  1.0  0.27853860816575055  0.24984768832748808  0.7690917626635959  Uiso  ?  O
O1  1.0  0.27949782228104825  0.26909553686098303  0.7160245735679778  Uiso  ?  O
O1  1.0  0.2883481906883442  0.2378065681767952  0.7344936718220302  Uiso  ?  O
Ce1  1.0  0.33066864460965245  0.30193068178264076  0.7012731002921786  Uiso  ?  Ce
Ce1  1.0  0.3113658766248039  0.27272348970022925  0.6600217000442479  Uiso  ?  Ce
Ce1  1.0  0.30704868684790554  0.25328651064694035  0.7122955373580614  Uiso  ?  Ce
Ce1  1.0  0.3564325359266389  0.2538621556898986  0.6856657748462879  Uiso  ?  Ce
O1  1.0  0.3287348478919488  0.26965079626430744  0.6882615194396531  Uiso  ?  O
O1  1.0  0.336228094079612  0.2392008919492129  0.7073742460464737  Uiso  ?  O
O1  1.0  0.3394143358896395  0.2575185924478642  0.6555333211171932  Uiso  ?  O
O1  1.0  0.2897637787702963  0.25716485093013314  0.6845721893332392  Uiso  ?  O
O1  1.0  0.3026769643894845  0.2399907143075739  0.6484551178981847  Uiso  ?  O
Ce1  1.0  0.3562038759340676  0.2738889183736803  0.6310278418644232  Uiso  ?  Ce
Ce1  1.0  0.3335449172250887  0.2433937479205438  0.5934967595166096  Uiso  ?  Ce
O1  1.0  0.34870173775486873  0.24229969094775952  0.6217976954262275  Uiso  ?  O
Ce1  1.0  0.3808916417722548  0.24601799013797065  0.564989669367299  Uiso  ?  Ce
Ce1  1.0  0.18928877938001298  0.30034898328384607  0.7802936367464448  Uiso  ?  Ce
Ce1  1.0  0.18860354831656437  0.27794662163936457  0.8360408603001008  Uiso  ?  Ce
Ce1  1.0  0.23479688692760609  0.2838390951716123  0.8086576275206101  Uiso  ?  Ce
O1  1.0  0.20684559243619335  0.2969493595473696  0.8150778407085136  Uiso  ?  O
O1  1.0  0.21624901008537872  0.2647915733873585  0.8307626689417192  Uiso  ?  O
O1  1.0  0.218655510833565  0.28348752469811334  0.7795102137320694  Uiso  ?  O
O1  1.0  0.22958913336861553  0.2502941572918063  0.7959126396752784  Uiso  ?  O
O1  1.0  0.17019939054606076  0.28334541677930775  0.8074522228992008  Uiso  ?  O
O1  1.0  0.1826279811622075  0.24870286415656878  0.8246941189660406  Uiso  ?  O
O1  1.0  0.18335276172859305  0.2682139140091571  0.7717068981499383  Uiso  ?  O
Ce1  1.0  0.2387162554406547  0.30334351417537087  0.7547388272135962  Uiso  ?  Ce
Ce1  1.0  0.21633023476132215  0.2674685350199015  0.7162039194074312  Uiso  ?  Ce
Ce1  1.0  0.21436168510925324  0.25474134002435583  0.7687867505933245  Uiso  ?  Ce
Ce1  1.0  0.26131171247068913  0.251356275789041  0.7405188834110109  Uiso  ?  Ce
O1  1.0  0.22855255903790464  0.2690966333681665  0.7436228731791161  Uiso  ?  O
O1  1.0  0.2414482935761334  0.23379119539427262  0.7640953390842711  Uiso  ?  O
O1  1.0  0.24325989920338117  0.25432893237109266  0.7097453203119557  Uiso  ?  O
O1  1.0  0.19383495541217227  0.2554505165860137  0.7406773496893231  Uiso  ?  O
O1  1.0  0.20983808013459498  0.24188947953688175  0.7067619648197832  Uiso  ?  O
Ce1  1.0  0.2600897436553935  0.27060315201627205  0.6904544986114651  Uiso  ?  Ce
Ce1  1.0  0.23770270781645933  0.24490782782932657  0.6495452929143664  Uiso  ?  Ce
O1  1.0  0.2559264459073635  0.24064852362000894  0.6750096830463809  Uiso  ?  O
Ce1  1.0  0.2853822124995424  0.2412553640791724  0.6220336929030116  Uiso  ?  Ce
Ce1  1.0  0.16656056586458018  0.2511902949578123  0.795348920657345  Uiso  ?  Ce
O1  1.0  0.1497939606337781  0.2513446906776994  0.7655019946206926  Uiso  ?  O
Ce1  1.0  0.16615990427252522  0.27142568949290813  0.7450642880567561  Uiso  ?  Ce
O1  1.0  0.1626677179852714  0.24097620564645447  0.7310717984479367  Uiso  ?  O
Ce1  1.0  0.19043755849232902  0.24213975943032512  0.6727781486298045  Uiso  ?  Ce
O1  1.0  0.7723794322677612  0.3078840295504129  0.7453402953562619  Uiso  ?  O
O1  1.0  0.7873702619132307  0.29433179484842464  0.7122409962497832  Uiso  ?  O
O1  1.0  0.7945558423118945  0.28094609894863226  0.678056186146207  Uiso  ?  O
O1  1.0  0.7237952017878241  0.3075312086682185  0.7744530429722748  Uiso  ?  O
O1  1.0  0.6761254432842547  0.30812281146943943  0.7993124445842222  Uiso  ?  O
O1  1.0  0.6876948478736571  0.29537402919409717  0.7640747443891325  Uiso  ?  O
Ce1  1.0  0.7093990911485808  0.3099680173855743  0.7442956495394852  Uiso  ?  Ce
Ce1  1.0  0.7538945380325703  0.3129367123512751  0.717195824678916  Uiso  ?  Ce
O1  1.0  0.7361909987908309  0.29418961709381725  0.7400090509564988  Uiso  ?  O
O1  1.0  0.7481105314563069  0.280884743809808  0.7061604245075918  Uiso  ?  O
O1  1.0  0.6876213116767623  0.3111952536219191  0.7152086858944399  Uiso  ?  O
O1  1.0  0.6991696655160311  0.2781031933667814  0.7320137635912961  Uiso  ?  O
O1  1.0  0.7009353048471744  0.2951796884001445  0.6791323078670395  Uiso  ?  O
O1  1.0  0.7132827346993961  0.2593714768719341  0.6993063652524818  Uiso  ?  O
Ce1  1.0  0.733197238573278  0.3013860050693529  0.6235400025779597  Uiso  ?  Ce
Ce1  1.0  0.729807051408336  0.2847986596667042  0.6749386579646081  Uiso  ?  Ce
Ce1  1.0  0.7789441303794404  0.2829411850566762  0.6463885830994996  Uiso  ?  Ce
O1  1.0  0.7500815656485765  0.2986253906550748  0.6510662125241927  Uiso  ?  O
O1  1.0  0.760168387341781  0.2629254396261593  0.669819895968179  Uiso  ?  O
O1  1.0  0.7613973372553002  0.2832598287660511  0.6211590937158354  Uiso  ?  O
O1  1.0  0.7723539319823649  0.24935316169802146  0.6364347902809642  Uiso  ?  O
O1  1.0  0.7139914502347832  0.2820565006801273  0.647017038552176  Uiso  ?  O
O1  1.0  0.7278859533472513  0.25125943318297306  0.6660885339922181  Uiso  ?  O
O1  1.0  0.726696949267097  0.2709756735691608  0.6130630707536254  Uiso  ?  O
O1  1.0  0.7368324339098753  0.2382193318345092  0.6307475609557116  Uiso  ?  O
Ce1  1.0  0.7805178688769062  0.3016241139000799  0.5967252171957937  Uiso  ?  Ce
Ce1  1.0  0.7578651213541832  0.2707894040104215  0.5552687498040437  Uiso  ?  Ce
Ce1  1.0  0.7569386728922273  0.25469558714034957  0.6074590326228874  Uiso  ?  Ce
O1  1.0  0.774358423470982  0.2691468010322537  0.5845648580075001  Uiso  ?  O
O1  1.0  0.7850305717481663  0.238850309164688  0.6004744644410008  Uiso  ?  O
O1  1.0  0.7873842280962843  0.255844633145674  0.5501252718136126  Uiso  ?  O
O1  1.0  0.7394999529427967  0.25412888889957747  0.5799889519819343  Uiso  ?  O
O1  1.0  0.7505753769015581  0.23931050046622537  0.5424908730601952  Uiso  ?  O
Ce1  1.0  0.7805337422440429  0.2445775660927702  0.4877971769645687  Uiso  ?  Ce
O1  1.0  0.6304412110775707  0.305749515034438  0.8280543788841516  Uiso  ?  O
O1  1.0  0.582794367645075  0.30523132218328886  0.8565380950170952  Uiso  ?  O
O1  1.0  0.5955568126272333  0.2905873046115709  0.82221615021398  Uiso  ?  O
Ce1  1.0  0.611689483836557  0.30601595402931636  0.8019079824283034  Uiso  ?  Ce
Ce1  1.0  0.6601851688575425  0.30812664656813  0.7724292810650124  Uiso  ?  Ce
O1  1.0  0.6424288898837486  0.2922082480900129  0.7944225955806749  Uiso  ?  O
O1  1.0  0.6416899146534284  0.3095127847244078  0.7405827121048283  Uiso  ?  O
O1  1.0  0.6544822746725854  0.27899064915806177  0.7591995535836631  Uiso  ?  O
O1  1.0  0.5933324143137194  0.3070209828292849  0.7704760113929064  Uiso  ?  O
O1  1.0  0.6053553249214793  0.27474305042416886  0.788525153438554  Uiso  ?  O
O1  1.0  0.6070669496693926  0.2965762659075942  0.7366149691084735  Uiso  ?  O
O1  1.0  0.6172422852578385  0.25981536309481373  0.7532998850596017  Uiso  ?  O
Ce1  1.0  0.6370866700245328  0.29894700054677004  0.6782490406776484  Uiso  ?  Ce
Ce1  1.0  0.6352256290030414  0.2816534172500939  0.7326711291284668  Uiso  ?  Ce
Ce1  1.0  0.6849837920343083  0.27999853013401177  0.7004321265736791  Uiso  ?  Ce
O1  1.0  0.6539014537168781  0.29867004208629255  0.7096430836618873  Uiso  ?  O
O1  1.0  0.66695143457196  0.26331367849940857  0.7277536525849606  Uiso  ?  O
O1  1.0  0.6673951380099329  0.28236648363476424  0.6776699711586694  Uiso  ?  O
O1  1.0  0.6773064317532383  0.2506710602625717  0.6902505157820683  Uiso  ?  O
O1  1.0  0.6180793489620737  0.2837441286202048  0.6987508556149016  Uiso  ?  O
O1  1.0  0.6318391483873903  0.25044412383465536  0.7192842150328084  Uiso  ?  O
O1  1.0  0.6327845548469706  0.26737600179357696  0.6702046830438709  Uiso  ?  O
Ce1  1.0  0.6855222607503578  0.2992546523517727  0.6526305952362771  Uiso  ?  Ce
Ce1  1.0  0.662031319751478  0.2706317032297132  0.6111795078760822  Uiso  ?  Ce
Ce1  1.0  0.6600956054679673  0.2520649203675681  0.6628547025980851  Uiso  ?  Ce
Ce1  1.0  0.7098191234159031  0.25430599321881864  0.6357363732427589  Uiso  ?  Ce
O1  1.0  0.6765397872800897  0.2675160060920039  0.6404528696458835  Uiso  ?  O
O1  1.0  0.6904640849411161  0.2544101085134476  0.6062022506340345  Uiso  ?  O
O1  1.0  0.6441683411206426  0.2549105731471872  0.6330729767717653  Uiso  ?  O
O1  1.0  0.6541957061526354  0.24004151672331436  0.6014711867218826  Uiso  ?  O
Ce1  1.0  0.7089017071526367  0.2740624073594085  0.5825829631163252  Uiso  ?  Ce
Ce1  1.0  0.6879712421586047  0.2427628183916657  0.5423841600959614  Uiso  ?  Ce
O1  1.0  0.7043295801098728  0.2384544916779107  0.571236570122622  Uiso  ?  O
Ce1  1.0  0.7348347442535986  0.24374517028411527  0.5167826875103302  Uiso  ?  Ce
Ce1  1.0  0.516699650644722  0.30749095315348285  0.8534504705755455  Uiso  ?  Ce
Ce1  1.0  0.5646656310143635  0.30685473790550677  0.8268383376087158  Uiso  ?  Ce
O1  1.0  0.5441764811129042  0.289255290702387  0.8480018810178608  Uiso  ?  O
O1  1.0  0.5490063608438682  0.3081040625388347  0.7960714107400557  Uiso  ?  O
O1  1.0  0.5589796103991524  0.2771835709006597  0.8137319163652464  Uiso  ?  O
O1  1.0  0.4996628008238573  0.31073269034492096  0.82523048922553  Uiso  ?  O
O1  1.0  0.5111567722774442  0.27556346906733103  0.8441993297648409  Uiso  ?  O
O1  1.0  0.5110517560199712  0.29479684709767084  0.7910969925155054  Uiso  ?  O
O1  1.0  0.5224659165450132  0.2631898757417943  0.8079816528259729  Uiso  ?  O
Ce1  1.0  0.5468182519370366  0.29716921513248895  0.7383886526860917  Uiso  ?  Ce
Ce1  1.0  0.5381662233384963  0.2786524507692228  0.787057827951457  Uiso  ?  Ce
Ce1  1.0  0.5895400530063399  0.2790709080758348  0.7568803360666874  Uiso  ?  Ce
O1  1.0  0.556253712403624  0.2943770485987108  0.7646617500888758  Uiso  ?  O
O1  1.0  0.5708329257777958  0.2628714587384901  0.7806365294301917  Uiso  ?  O
O1  1.0  0.572731842892343  0.28238693587003394  0.7287914286460156  Uiso  ?  O
O1  1.0  0.5829230575783896  0.24908331293718816  0.7464665473327021  Uiso  ?  O
O1  1.0  0.5247940953172014  0.28066863353999766  0.7577989216403501  Uiso  ?  O
O1  1.0  0.5346709388669311  0.2481464369173044  0.7752784957086811  Uiso  ?  O
O1  1.0  0.5360055718758956  0.26722616612171224  0.72162827852593  Uiso  ?  O
Ce1  1.0  0.5906668577667314  0.2986134023109784  0.7084283349303121  Uiso  ?  Ce
Ce1  1.0  0.5685137437426342  0.2703993764902452  0.6676470641349637  Uiso  ?  Ce
Ce1  1.0  0.5651761550450216  0.2506014725574472  0.7176275726149445  Uiso  ?  Ce
Ce1  1.0  0.6153234095101959  0.25146739440226995  0.690555445207796  Uiso  ?  Ce
O1  1.0  0.5849725170819179  0.2651673035186377  0.6938279580038029  Uiso  ?  O
O1  1.0  0.5976963823162559  0.2549376436749902  0.6620544965649331  Uiso  ?  O
O1  1.0  0.5477138538461699  0.25329039657522345  0.6888759545615782  Uiso  ?  O
O1  1.0  0.5623528301595921  0.23747140182833953  0.6557131127446386  Uiso  ?  O
Ce1  1.0  0.615826036178606  0.2678515780929829  0.640126439900624  Uiso  ?  Ce
Ce1  1.0  0.5914047976009258  0.23890017578465061  0.5981308569129438  Uiso  ?  Ce
O1  1.0  0.6083879314132355  0.23655838488239203  0.6284466484284897  Uiso  ?  O
Ce1  1.0  0.6390130912213953  0.23972599647146514  0.5694530479877861  Uiso  ?  Ce
O1  1.0  0.44983492790148993  0.30751092436712213  0.8544370520288603  Uiso  ?  O
O1  1.0  0.4165534749087804  0.2925012915632433  0.8460941742708546  Uiso  ?  O
Ce1  1.0  0.4469089950318084  0.2940127444840485  0.7902098491113231  Uiso  ?  Ce
Ce1  1.0  0.4476472862315195  0.27633315592480096  0.8407326725453138  Uiso  ?  Ce
Ce1  1.0  0.4933439649819429  0.2787564408705081  0.8151891694542974  Uiso  ?  Ce
O1  1.0  0.4649663571195053  0.29576378659553876  0.81805687277947  Uiso  ?  O
O1  1.0  0.4739092055747043  0.2607005849183907  0.8374681267433413  Uiso  ?  O
O1  1.0  0.4771441349145141  0.28020246317380915  0.784334138605508  Uiso  ?  O
O1  1.0  0.48859385342324846  0.2459432570684936  0.8041723594299521  Uiso  ?  O
O1  1.0  0.43068402491305324  0.278785929772002  0.8119757218867522  Uiso  ?  O
O1  1.0  0.4398734672897272  0.2468984570617611  0.8321310190838264  Uiso  ?  O
O1  1.0  0.44391875651120255  0.2647783492670153  0.7761576052046337  Uiso  ?  O
Ce1  1.0  0.4967625356184494  0.2973583933310394  0.7606812954493749  Uiso  ?  Ce
Ce1  1.0  0.4718898695057706  0.26531093325415195  0.7194423493648076  Uiso  ?  Ce
Ce1  1.0  0.47111776485943163  0.2472283183388015  0.7740652978599385  Uiso  ?  Ce
Ce1  1.0  0.5203839023258656  0.24695193229175602  0.7447920348785017  Uiso  ?  Ce
O1  1.0  0.4887877916003101  0.2649037397729592  0.7486539935659298  Uiso  ?  O
O1  1.0  0.5002261921261154  0.24957080501355694  0.7177473389035669  Uiso  ?  O
O1  1.0  0.45362330945959595  0.25153735894124135  0.7461120342454038  Uiso  ?  O
O1  1.0  0.465501770129356  0.23432816369588333  0.7095619144338514  Uiso  ?  O
Ce1  1.0  0.5201116907337334  0.2713793737241638  0.6931940233178672  Uiso  ?  Ce
Ce1  1.0  0.4959733713312834  0.2364726493460646  0.651954797795787  Uiso  ?  Ce
O1  1.0  0.5132571432455544  0.23757087563930557  0.6834422873446528  Uiso  ?  O
Ce1  1.0  0.5460068282248505  0.24040062161205522  0.6254528742447544  Uiso  ?  Ce
Ce1  1.0  0.3508568034988328  0.2935507662153496  0.844897535386038  Uiso  ?  Ce
O1  1.0  0.3833715439087137  0.2799314798889905  0.8398434236745737  Uiso  ?  O
O1  1.0  0.39271885993878375  0.24454091745761036  0.8582066180670969  Uiso  ?  O
O1  1.0  0.34566896772276107  0.26451219760820105  0.8319030489754815  Uiso  ?  O
Ce1  1.0  0.3997221420116659  0.29363347550034824  0.8156031744807563  Uiso  ?  Ce
Ce1  1.0  0.37704313983431603  0.2678220518066766  0.77789025536897  Uiso  ?  Ce
Ce1  1.0  0.37514387859168785  0.24643470134111586  0.8286909564736854  Uiso  ?  Ce
Ce1  1.0  0.4230358935047712  0.24681503491493428  0.7998775813065239  Uiso  ?  Ce
O1  1.0  0.39389568215092174  0.26237341193459085  0.8058617355714326  Uiso  ?  O
O1  1.0  0.40538026618912193  0.250806859029663  0.7710340209059222  Uiso  ?  O
O1  1.0  0.3584192785768758  0.24992203040069566  0.799925902330753  Uiso  ?  O
Ce1  1.0  0.4247766684012676  0.2671797166504011  0.7507902246640537  Uiso  ?  Ce
Ce1  1.0  0.40122377943811405  0.23799069566019904  0.7086855577182412  Uiso  ?  Ce
Ce1  1.0  0.44868288563379527  0.23879831259731898  0.6821842519927178  Uiso  ?  Ce
Ce1  1.0  0.28124999029079856  0.26493674877243245  0.83246798134241  Uiso  ?  Ce
Ce1  1.0  0.32944063021530406  0.24752832629358787  0.856382780227558  Uiso  ?  Ce
O1  1.0  0.31089908184567244  0.2474105586906559  0.8284824096178907  Uiso  ?  O
O1  1.0  0.26468391540378267  0.24775397914555713  0.8543399532518906  Uiso  ?  O
Ce1  1.0  0.32887137690211365  0.2649446902031835  0.8059831158505281  Uiso  ?  Ce
Ce1  1.0  0.35511636265111357  0.23758193049531592  0.7370628818517531  Uiso  ?  Ce
O1  1.0  0.754303480040674  0.3057042767628811  0.830327296543274  Uiso  ?  O
O1  1.0  0.7680794867025189  0.2689998279560727  0.850608659617462  Uiso  ?  O
O1  1.0  0.7679345789745593  0.29012568450737564  0.797167143812033  Uiso  ?  O
O1  1.0  0.7824856192428358  0.2592759944074115  0.8159315441682804  Uiso  ?  O
O1  1.0  0.780934143102156  0.27535395116864325  0.7634579192176597  Uiso  ?  O
O1  1.0  0.7922810827661689  0.24376766508666134  0.7800041600899187  Uiso  ?  O
O1  1.0  0.7967617556370068  0.2613859378455236  0.7276281833338482  Uiso  ?  O
O1  1.0  0.7107784591919324  0.3037967352815333  0.8600493384378444  Uiso  ?  O
O1  1.0  0.6742203196767325  0.29093211888822684  0.8524725363806674  Uiso  ?  O
Ce1  1.0  0.7018052403952963  0.2913900948169879  0.7950612980772147  Uiso  ?  Ce
Ce1  1.0  0.7029176517866542  0.27258358078050626  0.8500921251665263  Uiso  ?  Ce
Ce1  1.0  0.7499804378076506  0.27497799022864644  0.8210981968540123  Uiso  ?  Ce
O1  1.0  0.7221566480064089  0.2903461560378159  0.8258014003953115  Uiso  ?  O
O1  1.0  0.7318513546073021  0.2566590284243628  0.8430239670023766  Uiso  ?  O
O1  1.0  0.7346057979765562  0.2733281784407661  0.7908724707653677  Uiso  ?  O
O1  1.0  0.7438740501195475  0.24395790595028652  0.8106967462733552  Uiso  ?  O
O1  1.0  0.6893564746633126  0.27469905475726825  0.8176075148185065  Uiso  ?  O
O1  1.0  0.6952279247831604  0.2397727641032113  0.8358894963417182  Uiso  ?  O
O1  1.0  0.6996222221184741  0.2609703451025234  0.7831878947053139  Uiso  ?  O
Ce1  1.0  0.7532813613279871  0.29263581304495606  0.7670668380248656  Uiso  ?  Ce
Ce1  1.0  0.7289996736233025  0.26154029057081707  0.7284928229576842  Uiso  ?  Ce
Ce1  1.0  0.7261542996753504  0.24460132953780422  0.7779995313328607  Uiso  ?  Ce
Ce1  1.0  0.7750146075741483  0.24581265756157084  0.7531911885915155  Uiso  ?  Ce
O1  1.0  0.7466307385997913  0.26116491001345876  0.7571042832023068  Uiso  ?  O
O1  1.0  0.7582865690305322  0.24472627322720175  0.7211704261765634  Uiso  ?  O
O1  1.0  0.7121817144077136  0.24529904837063823  0.7488916658193947  Uiso  ?  O
Ce1  1.0  0.7762719174136705  0.2645871191662314  0.7014718357801848  Uiso  ?  Ce
Ce1  1.0  0.6098213909036678  0.2917017236861555  0.8511807059761984  Uiso  ?  Ce
O1  1.0  0.6385190603681927  0.27449152555714273  0.8475207344679939  Uiso  ?  O
O1  1.0  0.6045949502719776  0.26095771182770366  0.8401807100280225  Uiso  ?  O
Ce1  1.0  0.6570566332973178  0.2906886010996293  0.823856588873593  Uiso  ?  Ce
Ce1  1.0  0.6350930096620236  0.26174162281887  0.7827461875422748  Uiso  ?  Ce
Ce1  1.0  0.6353077566248579  0.2397049901625924  0.835619004642061  Uiso  ?  Ce
Ce1  1.0  0.6835094083252944  0.2413820669762861  0.8081513136278182  Uiso  ?  Ce
O1  1.0  0.6527228676913683  0.2618575678023386  0.8117289294140136  Uiso  ?  O
O1  1.0  0.6637384725800066  0.24409761570455607  0.7807426954733409  Uiso  ?  O
O1  1.0  0.6157820329931426  0.2454837254058036  0.8046315156530858  Uiso  ?  O
Ce1  1.0  0.6834359486465132  0.261806254195307  0.7560276192992971  Uiso  ?  Ce
Ce1  1.0  0.5407161021775855  0.2591518035233946  0.837718616136725  Uiso  ?  Ce
O1  1.0  0.56987382107483  0.24281537617401155  0.83223480335948  Uiso  ?  O
Ce1  1.0  0.5870704150224578  0.26046906277688314  0.809451405998272  Uiso  ?  Ce
O1  1.0  0.2992403931787954  0.2337984113054921  0.20794080794445716  Uiso  ?  O
O1  1.0  0.3464554332208075  0.2341946387410711  0.17724605836172597  Uiso  ?  O
O1  1.0  0.31636814317748513  0.2200795616326999  0.17569045664751623  Uiso  ?  O
O1  1.0  0.20575375060827172  0.23409497883790575  0.26136670911125665  Uiso  ?  O
O1  1.0  0.2548214065060696  0.23208440724688933  0.23305098763266605  Uiso  ?  O
O1  1.0  0.2668310696888553  0.2180959014226335  0.2003731201351483  Uiso  ?  O
O1  1.0  0.22070612426037808  0.21753261117523978  0.22935286056784948  Uiso  ?  O
O1  1.0  0.23009266865474162  0.20722786919714922  0.19209437621460584  Uiso  ?  O
Ce1  1.0  0.24969086242792463  0.21995835559794746  0.17237944073498992  Uiso  ?  Ce
O1  1.0  0.2755458872374296  0.20587455124143664  0.1668104895421533  Uiso  ?  O
O1  1.0  0.24408582163972367  0.18851405692118903  0.15955835237859312  Uiso  ?  O
O1  1.0  0.15882641019949645  0.23064300278449906  0.29122935966242514  Uiso  ?  O
O1  1.0  0.16984924504190307  0.21673743511844845  0.2572991507940015  Uiso  ?  O
Ce1  1.0  0.15415651763447324  0.22104998568042417  0.22626378619434356  Uiso  ?  Ce
Ce1  1.0  0.20312151934678593  0.21996627906838065  0.19799174590820356  Uiso  ?  Ce
O1  1.0  0.18466228040509353  0.20393887850927822  0.22227250013929065  Uiso  ?  O
O1  1.0  0.1849442683424407  0.22389931964397947  0.17180852542962116  Uiso  ?  O
O1  1.0  0.19792094698288165  0.18783699164819515  0.18499102619752059  Uiso  ?  O
O1  1.0  0.14706566414664987  0.18841135097618097  0.21342782825561848  Uiso  ?  O
O1  1.0  0.14958875668665703  0.20627804853524895  0.16443366301526574  Uiso  ?  O
O1  1.0  0.15995033403386155  0.1754191884367995  0.18090857286911444  Uiso  ?  O
Ce1  1.0  0.17911591689945244  0.19036137967715108  0.15817673998472587  Uiso  ?  Ce
O1  1.0  0.6535889821908679  0.2349261859580818  0.15952813820436018  Uiso  ?  O
O1  1.0  0.5605295467615866  0.23188038625056936  0.2144296761459899  Uiso  ?  O
O1  1.0  0.6059776532538423  0.23225506402944637  0.1854492032213433  Uiso  ?  O
O1  1.0  0.5714858436309345  0.21830848371453968  0.17932892372983622  Uiso  ?  O
O1  1.0  0.46406723082807017  0.22849655126687143  0.26661575956016526  Uiso  ?  O
O1  1.0  0.5112726386247236  0.23143830083127712  0.24081522908903294  Uiso  ?  O
O1  1.0  0.5258108927873962  0.21552276152835348  0.2054475759928721  Uiso  ?  O
O1  1.0  0.47699149562102305  0.21627906175742886  0.23416802463294872  Uiso  ?  O
O1  1.0  0.4775570279072763  0.23104625125383774  0.18191057171846722  Uiso  ?  O
O1  1.0  0.4890407337356968  0.19982653825659571  0.19899783154883846  Uiso  ?  O
Ce1  1.0  0.5072055859307649  0.2172437733572332  0.17707667787816145  Uiso  ?  Ce
O1  1.0  0.5251756780487229  0.23267888912222415  0.15382946514213844  Uiso  ?  O
O1  1.0  0.5363693892535096  0.20078629202029294  0.17181130640976142  Uiso  ?  O
O1  1.0  0.4995264492892389  0.18580100086150853  0.16560712333809588  Uiso  ?  O
O1  1.0  0.3679128338082893  0.2263531930098526  0.3270532036688581  Uiso  ?  O
O1  1.0  0.4146529756216251  0.22671331212928067  0.296492498592641  Uiso  ?  O
O1  1.0  0.4265956343497311  0.21481170273239186  0.25997303871526006  Uiso  ?  O
O1  1.0  0.38172789058515294  0.21021437257645365  0.2894150273358372  Uiso  ?  O
O1  1.0  0.3815318036221698  0.23406364938788793  0.23708582251790852  Uiso  ?  O
O1  1.0  0.3917854445793102  0.1992143921730828  0.252945270295269  Uiso  ?  O
Ce1  1.0  0.4117908268887285  0.23336060503663927  0.184626565063879  Uiso  ?  Ce
Ce1  1.0  0.41039894621415207  0.21789468880440005  0.23224530321252831  Uiso  ?  Ce
Ce1  1.0  0.45965335682141906  0.21647329983147617  0.20342804986177532  Uiso  ?  Ce
O1  1.0  0.4313888091388614  0.2331445712362124  0.20810042054084932  Uiso  ?  O
O1  1.0  0.4395536224988223  0.19968560534939012  0.2279414939619009  Uiso  ?  O
O1  1.0  0.44204765053973505  0.2176313167688736  0.17872101094192808  Uiso  ?  O
O1  1.0  0.45524602901005407  0.18592935322898685  0.1953039731466333  Uiso  ?  O
O1  1.0  0.39472404588267257  0.2174523233352008  0.20732086246551462  Uiso  ?  O
O1  1.0  0.40524473106513  0.18251835001919794  0.22472922385041508  Uiso  ?  O
O1  1.0  0.40565184181339753  0.20365315491222044  0.17182813737112435  Uiso  ?  O
O1  1.0  0.419352471296827  0.16836928347323205  0.18765535709731973  Uiso  ?  O
Ce1  1.0  0.43567552643480667  0.18791132158600513  0.1678658385630344  Uiso  ?  Ce
O1  1.0  0.4668367832570806  0.17138356652418066  0.16167542147460812  Uiso  ?  O
O1  1.0  0.27612439759943547  0.22740693036333876  0.379567675575989  Uiso  ?  O
O1  1.0  0.3218070308185553  0.22663590046758347  0.35046685881692397  Uiso  ?  O
O1  1.0  0.33344004497178065  0.21133913075692812  0.3178877546339106  Uiso  ?  O
O1  1.0  0.28826762586795757  0.20955330828795204  0.34590959907153385  Uiso  ?  O
O1  1.0  0.28902652170637166  0.2294012022925157  0.2937110589400656  Uiso  ?  O
O1  1.0  0.2986990643040605  0.1966650486541414  0.30985323946819726  Uiso  ?  O
Ce1  1.0  0.3192563869471461  0.2331761881728597  0.23718180231937303  Uiso  ?  Ce
Ce1  1.0  0.3153159668054163  0.21216272474434963  0.2859297379294364  Uiso  ?  Ce
Ce1  1.0  0.3669408755168008  0.21801439040807002  0.25930513073021705  Uiso  ?  Ce
O1  1.0  0.33462795121477024  0.23026369630749993  0.26826613645961256  Uiso  ?  O
O1  1.0  0.3464253757853835  0.1996054250551633  0.28343119312012877  Uiso  ?  O
O1  1.0  0.346489116078678  0.21788234218908845  0.23401907942997258  Uiso  ?  O
O1  1.0  0.35978309924538343  0.18469967571207  0.2509033476070191  Uiso  ?  O
O1  1.0  0.300291826925229  0.2153862215738066  0.25767219537815644  Uiso  ?  O
O1  1.0  0.31160756941423773  0.18176584349561992  0.2763376536969193  Uiso  ?  O
O1  1.0  0.3123324894313969  0.20531399516699528  0.22582688932379277  Uiso  ?  O
O1  1.0  0.3220098023398852  0.17089635209425183  0.24268772563173127  Uiso  ?  O
Ce1  1.0  0.36514542343844314  0.23371871943098665  0.21118044634704317  Uiso  ?  Ce
Ce1  1.0  0.3438377091778906  0.20229416311155798  0.16663855444113135  Uiso  ?  Ce
Ce1  1.0  0.34270472565895094  0.1839989438598046  0.22236931713725538  Uiso  ?  Ce
Ce1  1.0  0.39054098553101635  0.184952723520581  0.19542068604207363  Uiso  ?  Ce
O1  1.0  0.35973970855338333  0.1999425084278327  0.19719788580373157  Uiso  ?  O
O1  1.0  0.36728615624444283  0.16886226499496082  0.21324439102099732  Uiso  ?  O
O1  1.0  0.3707159744025393  0.18779594056761884  0.1623286912214026  Uiso  ?  O
O1  1.0  0.32568188419495303  0.18982773927978017  0.19025104752507668  Uiso  ?  O
O1  1.0  0.3331959805448318  0.17301617022292973  0.15691847303106182  Uiso  ?  O
O1  1.0  0.17923501373490172  0.22297207979975117  0.432162631897035  Uiso  ?  O
O1  1.0  0.2282827848797322  0.22667681024413044  0.40600600829629546  Uiso  ?  O
O1  1.0  0.23927506432281145  0.20783158851951275  0.37321881216357866  Uiso  ?  O
O1  1.0  0.19183570794545418  0.20852564838504167  0.401352154838162  Uiso  ?  O
O1  1.0  0.19490057879501044  0.2258265539437186  0.3465108342580176  Uiso  ?  O
O1  1.0  0.20593295594292443  0.19718321916629097  0.3657198280238612  Uiso  ?  O
Ce1  1.0  0.22366413490498682  0.2302355051175133  0.2904718728257867  Uiso  ?  Ce
Ce1  1.0  0.2224453532758651  0.2112595017211405  0.34495851420986223  Uiso  ?  Ce
Ce1  1.0  0.27105358983923783  0.216120165362286  0.31661853563720704  Uiso  ?  Ce
O1  1.0  0.24294695643850525  0.2303692923996784  0.32115913416676345  Uiso  ?  O
O1  1.0  0.2536415956158311  0.1967501941697049  0.33885831298221186  Uiso  ?  O
O1  1.0  0.2517452163478278  0.21407156676495454  0.28659518802359624  Uiso  ?  O
O1  1.0  0.2613271312047045  0.1836652514818595  0.30467388003062423  Uiso  ?  O
O1  1.0  0.20314977663337497  0.21400615605829545  0.31291170604387686  Uiso  ?  O
O1  1.0  0.21466800495020225  0.1824455436528037  0.334854909615154  Uiso  ?  O
O1  1.0  0.21653591789701768  0.20007791329434757  0.2783887328294536  Uiso  ?  O
O1  1.0  0.22895119248247012  0.16766704340340605  0.30063854969621945  Uiso  ?  O
Ce1  1.0  0.2708779932369336  0.23233065663730795  0.2624343734383575  Uiso  ?  Ce
Ce1  1.0  0.24511234693303033  0.2064697458769153  0.22316427379266002  Uiso  ?  Ce
Ce1  1.0  0.24946110185578974  0.18472983017299194  0.2737815110809541  Uiso  ?  Ce
Ce1  1.0  0.2942358581251917  0.18588785320249893  0.24505558421670093  Uiso  ?  Ce
O1  1.0  0.2654002120192486  0.2016741344879471  0.2538864631596101  Uiso  ?  O
O1  1.0  0.27470079090253574  0.16747109152644912  0.27148161922982644  Uiso  ?  O
O1  1.0  0.27643927492737286  0.1855511561581555  0.2188904434577032  Uiso  ?  O
O1  1.0  0.23044332170056472  0.18679025845367103  0.24734072559820122  Uiso  ?  O
O1  1.0  0.23955148550586175  0.17106142936764374  0.2129825736039672  Uiso  ?  O
Ce1  1.0  0.2941610616294574  0.20423831333844727  0.1968127118413178  Uiso  ?  Ce
Ce1  1.0  0.27418777385309234  0.17375349164047107  0.15672320801764086  Uiso  ?  Ce
O1  1.0  0.2891456680060136  0.17303170971206583  0.18558555085302564  Uiso  ?  O
O1  1.0  0.14479461602396346  0.21160054237846815  0.42937810687166605  Uiso  ?  O
Ce1  1.0  0.17216347660202783  0.21153884878036688  0.36971275187258623  Uiso  ?  Ce
O1  1.0  0.14630831696229366  0.22946383080958696  0.3741965467708046  Uiso  ?  O
O1  1.0  0.15586740971043098  0.19769347176910934  0.3925178215446512  Uiso  ?  O
O1  1.0  0.15619732299272737  0.21149348785088284  0.3428008056109095  Uiso  ?  O
O1  1.0  0.16756084270438984  0.18138104425801754  0.3607548010007362  Uiso  ?  O
Ce1  1.0  0.1787626978479967  0.22821266156101547  0.318425636159456  Uiso  ?  Ce
Ce1  1.0  0.15064495507822082  0.2014469987912185  0.2812375907756855  Uiso  ?  Ce
Ce1  1.0  0.1537635095637847  0.1806163474904832  0.331040458468959  Uiso  ?  Ce
Ce1  1.0  0.198904001691563  0.18094682319303418  0.30311827978244416  Uiso  ?  Ce
O1  1.0  0.17146848068282355  0.19775908456567676  0.30741625863217437  Uiso  ?  O
O1  1.0  0.17863897179786842  0.166346794879765  0.323669567150847  Uiso  ?  O
O1  1.0  0.18171255238676887  0.18448086440904182  0.27403414858501557  Uiso  ?  O
O1  1.0  0.148598889033777  0.17081222138329785  0.2676742955429851  Uiso  ?  O
Ce1  1.0  0.20146332365186226  0.2017395509106615  0.25206907127972805  Uiso  ?  Ce
Ce1  1.0  0.17469793510466597  0.1718665529048179  0.21036391300764276  Uiso  ?  Ce
O1  1.0  0.19757692033891547  0.17240243032877858  0.24057152596692982  Uiso  ?  O
Ce1  1.0  0.2256295906171845  0.17233802445226065  0.18037480228834762  Uiso  ?  Ce
O1  1.0  0.7228528709966389  0.2219260807438491  0.2735145087486439  Uiso  ?  O
O1  1.0  0.768583557103439  0.2260833834104116  0.24616198700345054  Uiso  ?  O
O1  1.0  0.7826084038853615  0.21342888124818224  0.21334810861322373  Uiso  ?  O
O1  1.0  0.7356693801153037  0.21230378939755096  0.2429111176424931  Uiso  ?  O
O1  1.0  0.734366064698069  0.22872435196424232  0.18620959015142435  Uiso  ?  O
O1  1.0  0.7452709441377646  0.19494339069085528  0.20725262495534263  Uiso  ?  O
Ce1  1.0  0.7649010556415344  0.21261336739812717  0.18160173296444665  Uiso  ?  Ce
O1  1.0  0.7806309859304932  0.23126731751266347  0.159679746743418  Uiso  ?  O
O1  1.0  0.7924251094808065  0.19788909389824008  0.18087963668972903  Uiso  ?  O
O1  1.0  0.7620074916541429  0.18367026517211146  0.17413509805971117  Uiso  ?  O
O1  1.0  0.6284644956045766  0.22295352282408037  0.3319021704976675  Uiso  ?  O
O1  1.0  0.6736134050217764  0.22615263701889465  0.30056862517040916  Uiso  ?  O
O1  1.0  0.6868524421855356  0.21058921278454318  0.26776838465998454  Uiso  ?  O
O1  1.0  0.6400075974261389  0.21055689361270058  0.29592899661124583  Uiso  ?  O
O1  1.0  0.6407060457882644  0.22737617232208587  0.24371522917474261  Uiso  ?  O
O1  1.0  0.6514214780818588  0.19520711966502166  0.25753227163534315  Uiso  ?  O
Ce1  1.0  0.668518033653644  0.22936886251055236  0.18597096689120243  Uiso  ?  Ce
Ce1  1.0  0.6716324216858981  0.2106302526479127  0.2390532489993588  Uiso  ?  Ce
Ce1  1.0  0.7183086102377458  0.21187846989484874  0.21176471210801584  Uiso  ?  Ce
O1  1.0  0.6925408481349438  0.22801200658515475  0.21500150511755614  Uiso  ?  O
O1  1.0  0.69886809992622  0.19637532414295877  0.23193304422016608  Uiso  ?  O
O1  1.0  0.7006623681515965  0.21361385048428042  0.18375744850783232  Uiso  ?  O
O1  1.0  0.7129359746241255  0.18545255477055608  0.19852158646636997  Uiso  ?  O
O1  1.0  0.6536671274506658  0.21204534560191396  0.21012599070691856  Uiso  ?  O
O1  1.0  0.6631640813594266  0.1798641584960985  0.2280445419820773  Uiso  ?  O
O1  1.0  0.6628233910512856  0.20067605748747483  0.17795953376852675  Uiso  ?  O
O1  1.0  0.6747045250534283  0.1681431805421205  0.19570348146741814  Uiso  ?  O
Ce1  1.0  0.7203623958464223  0.23165704265627154  0.16086998439754824  Uiso  ?  Ce
Ce1  1.0  0.6920511937645571  0.18037159834694286  0.17137640538366586  Uiso  ?  Ce
O1  1.0  0.724099501120187  0.16689601780073438  0.16551416710309627  Uiso  ?  O
O1  1.0  0.519116843893242  0.23702540533284763  0.42129208966398546  Uiso  ?  O
O1  1.0  0.5314208114090463  0.2202611440338123  0.3862407636961976  Uiso  ?  O
O1  1.0  0.5786874528341833  0.222095431854669  0.3606417455878215  Uiso  ?  O
O1  1.0  0.58953399934719  0.20674461347239642  0.323676352721685  Uiso  ?  O
O1  1.0  0.5429121901277759  0.20780010847819222  0.3504019355604005  Uiso  ?  O
O1  1.0  0.547486514523369  0.22744777588280948  0.29978941741076587  Uiso  ?  O
O1  1.0  0.5580050091513268  0.1944272851475396  0.3155372009208805  Uiso  ?  O
Ce1  1.0  0.575812040690383  0.2290472455567574  0.2428299528584704  Uiso  ?  Ce
Ce1  1.0  0.5773175084779422  0.21100414995451733  0.2954881759049013  Uiso  ?  Ce
Ce1  1.0  0.6211616848298294  0.2123432463782987  0.26594230002295927  Uiso  ?  Ce
O1  1.0  0.5934314691615322  0.22674333206336325  0.27206865877433367  Uiso  ?  O
O1  1.0  0.6045361826467792  0.19444183978757126  0.28931590424054626  Uiso  ?  O
O1  1.0  0.605288273271619  0.21333924216536393  0.23517415700374458  Uiso  ?  O
O1  1.0  0.6195517937564363  0.1799373473624706  0.25819455242639894  Uiso  ?  O
O1  1.0  0.5564892011704898  0.2109087865147247  0.2636127503408748  Uiso  ?  O
O1  1.0  0.5664871318981362  0.17968353090637168  0.28266226516846094  Uiso  ?  O
O1  1.0  0.5701396019691132  0.19714237856023997  0.22971580169898373  Uiso  ?  O
O1  1.0  0.5811065105271908  0.16650662427878815  0.24897813483003162  Uiso  ?  O
Ce1  1.0  0.6226135754413222  0.22774612488105997  0.21278821428334888  Uiso  ?  Ce
Ce1  1.0  0.6022035035650314  0.20060874525267963  0.1751577812467357  Uiso  ?  Ce
Ce1  1.0  0.5964142751349439  0.18211710054851815  0.22627826327532918  Uiso  ?  Ce
Ce1  1.0  0.6497433618403462  0.18219704227081748  0.1976793225689127  Uiso  ?  Ce
O1  1.0  0.6153366358881174  0.19878671535926082  0.20401116887328474  Uiso  ?  O
O1  1.0  0.6295320110174596  0.16733849324082048  0.2231790058629288  Uiso  ?  O
O1  1.0  0.6279216750888631  0.18472430749705196  0.1664487828005924  Uiso  ?  O
O1  1.0  0.5831805551411654  0.1802904415082597  0.19733618915161927  Uiso  ?  O
O1  1.0  0.594109074757489  0.169179974734504  0.16442338613407978  Uiso  ?  O
O1  1.0  0.47390060755617114  0.23437634497226661  0.44573774169575453  Uiso  ?  O
O1  1.0  0.42582387315026715  0.23586421547613143  0.47500441678131494  Uiso  ?  O
O1  1.0  0.4361361263096313  0.22164702562940936  0.4399466005249906  Uiso  ?  O
O1  1.0  0.4839021558983669  0.2221228933628881  0.4144809839948943  Uiso  ?  O
O1  1.0  0.49715276239509293  0.2057395233196397  0.37950458975344314  Uiso  ?  O
O1  1.0  0.4472411025237007  0.20477347234033869  0.4057066153994388  Uiso  ?  O
O1  1.0  0.4506585680006072  0.2259631876911149  0.3530188371787243  Uiso  ?  O
O1  1.0  0.4606117774259697  0.19055220521867222  0.3701383283271319  Uiso  ?  O
Ce1  1.0  0.4818713059604487  0.2264264696905574  0.30177237597249845  Uiso  ?  Ce
Ce1  1.0  0.4793884535027787  0.20744007959824595  0.35139552335467494  Uiso  ?  Ce
Ce1  1.0  0.5265106971415904  0.2081957284752874  0.32301480312642933  Uiso  ?  Ce
O1  1.0  0.495627375948344  0.22535088076278675  0.3225718196951281  Uiso  ?  O
O1  1.0  0.5090531539559562  0.1948464530639418  0.3439903717843333  Uiso  ?  O
O1  1.0  0.511925077771131  0.2091847332340857  0.29172617741236345  Uiso  ?  O
O1  1.0  0.5227034511154038  0.17871002738959993  0.31127981089768747  Uiso  ?  O
O1  1.0  0.4648325819195025  0.21037633424684968  0.3242106525234534  Uiso  ?  O
O1  1.0  0.47407279245016515  0.17742934431662108  0.3379979556600744  Uiso  ?  O
O1  1.0  0.4735915726535761  0.19550903978053558  0.2863114440616425  Uiso  ?  O
O1  1.0  0.48514333604472953  0.162101068757929  0.30494436165238165  Uiso  ?  O
Ce1  1.0  0.5273156877394379  0.2281671283585037  0.26786155705308873  Uiso  ?  Ce
Ce1  1.0  0.5072656835239405  0.19840576460478965  0.2275460515925766  Uiso  ?  Ce
Ce1  1.0  0.5033603424671999  0.18019814824581598  0.27840303996197263  Uiso  ?  Ce
Ce1  1.0  0.551786258067981  0.18112463637179857  0.2508522231826648  Uiso  ?  Ce
O1  1.0  0.5244086522531731  0.1978664397911971  0.25918035424876334  Uiso  ?  O
O1  1.0  0.5363910375428753  0.16627307110670633  0.27503791906694186  Uiso  ?  O
O1  1.0  0.5337872999237152  0.18266622354001394  0.22566097700214258  Uiso  ?  O
O1  1.0  0.4909639379848688  0.1825288827746744  0.25277660766132776  Uiso  ?  O
O1  1.0  0.5006385841563784  0.16686352442258404  0.2179871102049712  Uiso  ?  O
Ce1  1.0  0.5570412527619897  0.20151042698873697  0.20113940643221362  Uiso  ?  Ce
Ce1  1.0  0.530865114682745  0.16749047563618932  0.160047642109516  Uiso  ?  Ce
O1  1.0  0.5484932182242229  0.17039272348991127  0.18955273885785906  Uiso  ?  O
O1  1.0  0.3759887328008072  0.23059301674732696  0.5026822857864991  Uiso  ?  O
O1  1.0  0.330101998014591  0.23472318022584618  0.530731024842905  Uiso  ?  O
O1  1.0  0.3416627960875398  0.2170698416515047  0.4945067628473662  Uiso  ?  O
Ce1  1.0  0.3595645853346457  0.2336654002036012  0.4716687144809987  Uiso  ?  Ce
Ce1  1.0  0.410568705499048  0.23449176832246083  0.44302178811494974  Uiso  ?  Ce
O1  1.0  0.39314892677230834  0.2204000701810865  0.4683972807753579  Uiso  ?  O
O1  1.0  0.4023267988144005  0.20333649357973324  0.4331907446456021  Uiso  ?  O
O1  1.0  0.35244016359280145  0.20343121085039834  0.4620332339744378  Uiso  ?  O
O1  1.0  0.3581093012238542  0.22088454254171502  0.41012186911418347  Uiso  ?  O
O1  1.0  0.3667832014858367  0.18928523088142732  0.4265651627549113  Uiso  ?  O
Ce1  1.0  0.38789768671015923  0.2249899867576978  0.35169387905348964  Uiso  ?  Ce
Ce1  1.0  0.3830473528093509  0.20741874419597411  0.4030383581937718  Uiso  ?  Ce
Ce1  1.0  0.43239619365115256  0.2052961388149203  0.3773400568475907  Uiso  ?  Ce
O1  1.0  0.4026199446037276  0.22219824908205663  0.38274065960898984  Uiso  ?  O
O1  1.0  0.41456837706252103  0.1893235742799938  0.3992165989353124  Uiso  ?  O
O1  1.0  0.4165333150628338  0.21124519998744423  0.34623152019473025  Uiso  ?  O
O1  1.0  0.42576117677585273  0.1748773418587862  0.3640342023427265  Uiso  ?  O
O1  1.0  0.36891717373223926  0.2090953956393149  0.3750778435634881  Uiso  ?  O
O1  1.0  0.37683974019245625  0.17477530866052396  0.3922256610361839  Uiso  ?  O
O1  1.0  0.3798836885168105  0.18985733245983266  0.3428604048041496  Uiso  ?  O
O1  1.0  0.39289057816095946  0.16063135008548135  0.3600003434063627  Uiso  ?  O
Ce1  1.0  0.4342581732911979  0.22727864958255475  0.3249778157082413  Uiso  ?  Ce
Ce1  1.0  0.40790680975004656  0.19657029111242186  0.28389802550479837  Uiso  ?  Ce
Ce1  1.0  0.4096747366847926  0.17703337793294704  0.33248134819724223  Uiso  ?  Ce
Ce1  1.0  0.457539192601633  0.17700193810912715  0.30749360736899306  Uiso  ?  Ce
O1  1.0  0.4288615795735217  0.1932616457810645  0.31420557277608724  Uiso  ?  O
O1  1.0  0.4365917481933589  0.1604148432292005  0.3328398912375039  Uiso  ?  O
O1  1.0  0.4396130023382523  0.1831533783581515  0.278544363716798  Uiso  ?  O
O1  1.0  0.39074093291790096  0.1812365260241053  0.30812263851723404  Uiso  ?  O
O1  1.0  0.40671464152375536  0.16476862493176395  0.27263735016175167  Uiso  ?  O
Ce1  1.0  0.4574842206924619  0.196097402136881  0.25941656133309293  Uiso  ?  Ce
Ce1  1.0  0.4340753216760738  0.16915144698660212  0.21920385392024205  Uiso  ?  Ce
O1  1.0  0.4515536525333908  0.1661992966409262  0.2447393127507803  Uiso  ?  O
Ce1  1.0  0.48305086685740906  0.17017486197327952  0.18781848877250187  Uiso  ?  Ce
O1  1.0  0.28388579310564643  0.2347149309377417  0.5577149726574547  Uiso  ?  O
O1  1.0  0.23573785018299007  0.2294373129123086  0.5832936258866113  Uiso  ?  O
O1  1.0  0.24504606008234625  0.2186233982288709  0.5496086387309117  Uiso  ?  O
Ce1  1.0  0.26150661621033633  0.23413295484395447  0.5301092807822239  Uiso  ?  Ce
Ce1  1.0  0.3128024062407504  0.2333247921022669  0.5009552713601892  Uiso  ?  Ce
O1  1.0  0.29599899557018794  0.21735936772915984  0.524950781394499  Uiso  ?  O
O1  1.0  0.30892104640400514  0.20303969886329717  0.4877528064251787  Uiso  ?  O
O1  1.0  0.24878882180131015  0.23307500833968026  0.5003074000883946  Uiso  ?  O
O1  1.0  0.2573251320809031  0.2022212589335459  0.5172423608950473  Uiso  ?  O
O1  1.0  0.25865021978001645  0.2238538493250783  0.4657864929381763  Uiso  ?  O
O1  1.0  0.26967185798602117  0.1846024127011484  0.4828974090844009  Uiso  ?  O
Ce1  1.0  0.2896712080587235  0.22199529577002697  0.40916005674757366  Uiso  ?  Ce
Ce1  1.0  0.2901873018805271  0.20379189873352957  0.4610904553108613  Uiso  ?  Ce
Ce1  1.0  0.337000376578176  0.20286145323881222  0.4322400453424751  Uiso  ?  Ce
O1  1.0  0.30590534426148464  0.2215096656815656  0.4383106368890009  Uiso  ?  O
O1  1.0  0.3172953577110115  0.18776015527916337  0.4530211695644463  Uiso  ?  O
O1  1.0  0.3197162900466656  0.20681435075412063  0.40511189470816483  Uiso  ?  O
O1  1.0  0.3311640038957182  0.17490811227472264  0.4203198032273333  Uiso  ?  O
O1  1.0  0.27210443386987676  0.20912945163988644  0.43251881709769574  Uiso  ?  O
O1  1.0  0.2844755556392063  0.17533330457683283  0.44674313364633983  Uiso  ?  O
O1  1.0  0.2846855463851416  0.19184556086896806  0.39734969887893723  Uiso  ?  O
Ce1  1.0  0.33880594660751145  0.22333852276914687  0.38170424940283454  Uiso  ?  Ce
Ce1  1.0  0.3153232023962196  0.19534182373328268  0.33884176269058547  Uiso  ?  Ce
Ce1  1.0  0.31512164035636103  0.17604086759294582  0.39164919977831847  Uiso  ?  Ce
Ce1  1.0  0.3625855739616829  0.1751103407617567  0.36651529826371865  Uiso  ?  Ce
O1  1.0  0.33246298263218216  0.1943163140462355  0.36646915408157377  Uiso  ?  O
O1  1.0  0.3418933700545365  0.16038939521186857  0.3866904743155954  Uiso  ?  O
O1  1.0  0.34560336366280925  0.17736548467608515  0.3376801577270937  Uiso  ?  O
O1  1.0  0.29783143235242837  0.1750365705024971  0.3607910387242427  Uiso  ?  O
O1  1.0  0.3085893555429322  0.1653769838317575  0.3264108652362143  Uiso  ?  O
Ce1  1.0  0.3631396181891844  0.19894246775255855  0.31375042192494995  Uiso  ?  Ce
Ce1  1.0  0.339921031999545  0.16572832423718498  0.270505785870159  Uiso  ?  Ce
O1  1.0  0.35769923153212896  0.16464863942191368  0.30015881636018965  Uiso  ?  O
Ce1  1.0  0.3883862348376025  0.1698973846821772  0.24312528321081464  Uiso  ?  Ce
O1  1.0  0.18669170810993918  0.22775230268531724  0.6119929470145491  Uiso  ?  O
O1  1.0  0.15376079220988392  0.2154477491015252  0.6082935503209097  Uiso  ?  O
Ce1  1.0  0.17155792942026218  0.23112521855626605  0.583207198357024  Uiso  ?  Ce
Ce1  1.0  0.21748255748102355  0.23313511671503007  0.5550896384646397  Uiso  ?  Ce
O1  1.0  0.1971354471023178  0.21680309103355422  0.5777757516916058  Uiso  ?  O
O1  1.0  0.19991373091424913  0.233838040774913  0.5289211874832545  Uiso  ?  O
O1  1.0  0.21102819060334005  0.2011283724702538  0.5445962905208547  Uiso  ?  O
O1  1.0  0.15187522301274067  0.2313482439390418  0.5528642285230693  Uiso  ?  O
O1  1.0  0.1609599248339948  0.2002144998561365  0.5705162488280576  Uiso  ?  O
O1  1.0  0.16748664770203972  0.21946086710374507  0.5178685347129103  Uiso  ?  O
O1  1.0  0.17633548263328616  0.18889593646483413  0.5379680521585102  Uiso  ?  O
Ce1  1.0  0.19523275885215266  0.2229378152828317  0.4619155549184296  Uiso  ?  Ce
Ce1  1.0  0.19509855760248468  0.20323352815795515  0.513728738565122  Uiso  ?  Ce
Ce1  1.0  0.24518651544724906  0.20491329564968205  0.4841926461295643  Uiso  ?  Ce
O1  1.0  0.21376146088077277  0.22099864816763554  0.49361141020946164  Uiso  ?  O
O1  1.0  0.2244571297247232  0.18747008250611338  0.513140810163381  Uiso  ?  O
O1  1.0  0.22433571811319972  0.205624664208874  0.4592935046659584  Uiso  ?  O
O1  1.0  0.23458660090646524  0.17398284715045806  0.47771953980314497  Uiso  ?  O
O1  1.0  0.17816629840387316  0.20454046183447283  0.48535185079422266  Uiso  ?  O
O1  1.0  0.1883231796456796  0.1734180872487272  0.5013046488236639  Uiso  ?  O
O1  1.0  0.1871960711455897  0.19278419167240257  0.45227972148510426  Uiso  ?  O
Ce1  1.0  0.24329072096069143  0.22437991976853797  0.43579959350151615  Uiso  ?  Ce
Ce1  1.0  0.2212606377229158  0.19416060266298854  0.3951875187090226  Uiso  ?  Ce
Ce1  1.0  0.22025144523701548  0.17583778466346325  0.4484506081935734  Uiso  ?  Ce
Ce1  1.0  0.26388769214601493  0.17567166139705562  0.4209199579460092  Uiso  ?  Ce
O1  1.0  0.2384669329390657  0.19078405024273587  0.4248941420485429  Uiso  ?  O
O1  1.0  0.25087787741490997  0.1767659858695591  0.3939720411230513  Uiso  ?  O
O1  1.0  0.1972840654882833  0.1779476682837387  0.4176955018256823  Uiso  ?  O
O1  1.0  0.21276289139997007  0.16299322197680574  0.38590688741757195  Uiso  ?  O
Ce1  1.0  0.26727806436902257  0.19216149693388504  0.3693156677904568  Uiso  ?  Ce
Ce1  1.0  0.24527677113832727  0.165252920030493  0.32681430049315885  Uiso  ?  Ce
O1  1.0  0.26267422236853694  0.16233879898949335  0.35539095603023463  Uiso  ?  O
Ce1  1.0  0.29319131746619054  0.16716014509998534  0.3007743801267877  Uiso  ?  Ce
Ce1  1.0  0.14686710758750884  0.20326130254832395  0.5430815144009147  Uiso  ?  Ce
Ce1  1.0  0.1473041867019265  0.22329730596858244  0.4895861236063579  Uiso  ?  Ce
Ce1  1.0  0.17228982100091983  0.17488924035241296  0.47695882426080694  Uiso  ?  Ce
O1  1.0  0.1538271880767538  0.17415051493578138  0.4458219582340598  Uiso  ?  O
Ce1  1.0  0.17383555039805348  0.1935577532062661  0.42563874619672476  Uiso  ?  Ce
Ce1  1.0  0.15024082644938566  0.1630995339325186  0.38325409396049187  Uiso  ?  Ce
O1  1.0  0.16830540669488336  0.16295702025713832  0.41281215299415414  Uiso  ?  O
Ce1  1.0  0.1984760582564251  0.16438934887387796  0.3512625547561656  Uiso  ?  Ce
O1  1.0  0.7747928051770174  0.22985691473337433  0.42371894151654144  Uiso  ?  O
O1  1.0  0.7907354087930618  0.21763810554206767  0.3895809304260509  Uiso  ?  O
O1  1.0  0.727824408682266  0.23119321853978833  0.4553936966494206  Uiso  ?  O
O1  1.0  0.6822724471331585  0.23055624657701917  0.4804186960547413  Uiso  ?  O
O1  1.0  0.6937418655883579  0.21669249192666346  0.4457372717554254  Uiso  ?  O
Ce1  1.0  0.7129106679124689  0.2333076766658472  0.42341677874660283  Uiso  ?  Ce
Ce1  1.0  0.760195642339456  0.23189809730573355  0.395144566076194  Uiso  ?  Ce
O1  1.0  0.7417276739228013  0.21499421645022376  0.41812726947586826  Uiso  ?  O
O1  1.0  0.7419000439648236  0.23652347829241968  0.36418248462380975  Uiso  ?  O
O1  1.0  0.7541873985519524  0.20137383749933022  0.38714039290531305  Uiso  ?  O
O1  1.0  0.6952025495965546  0.23353732360144025  0.39462694262942644  Uiso  ?  O
O1  1.0  0.7062652725623665  0.20428891660373982  0.41481943978886876  Uiso  ?  O
O1  1.0  0.7083883550160428  0.22078509254934509  0.3607731070802657  Uiso  ?  O
O1  1.0  0.721065544537813  0.18773913628509895  0.3799237006800514  Uiso  ?  O
Ce1  1.0  0.7402814755860333  0.22250932364803633  0.3054864818955529  Uiso  ?  Ce
Ce1  1.0  0.7372653971729581  0.20475038929298237  0.35476056834786973  Uiso  ?  Ce
Ce1  1.0  0.7867535116407015  0.2058234254303967  0.3303118547649701  Uiso  ?  Ce
O1  1.0  0.7573263595859966  0.2194525609054452  0.3303912616631618  Uiso  ?  O
O1  1.0  0.7671270058057233  0.1873050584577459  0.34933651725732284  Uiso  ?  O
O1  1.0  0.7667092120331082  0.20708062683477785  0.299289522986153  Uiso  ?  O
O1  1.0  0.7784409910831095  0.17275929874243032  0.3145902111864364  Uiso  ?  O
O1  1.0  0.7215689425177394  0.2066136077868697  0.327657212253352  Uiso  ?  O
O1  1.0  0.7317301839041324  0.17191542157441206  0.34359239088608623  Uiso  ?  O
O1  1.0  0.7336480571131029  0.19058766402741492  0.2943354725506012  Uiso  ?  O
Ce1  1.0  0.7867508443458361  0.22292332282910618  0.2760290478051428  Uiso  ?  Ce
Ce1  1.0  0.7665212528217216  0.19217750788965215  0.23348789514824542  Uiso  ?  Ce
Ce1  1.0  0.760837707060858  0.176501012055687  0.2861357946554061  Uiso  ?  Ce
O1  1.0  0.7796311539733358  0.1933196155317278  0.26518868312789745  Uiso  ?  O
O1  1.0  0.7930847916725562  0.15874217527225007  0.28011570601940244  Uiso  ?  O
O1  1.0  0.7911565580605384  0.17878822696053617  0.23083525100681992  Uiso  ?  O
O1  1.0  0.743939006459059  0.176443940981738  0.2562064466394851  Uiso  ?  O
O1  1.0  0.7561972295111694  0.16567865073286853  0.2252441884941608  Uiso  ?  O
Ce1  1.0  0.7868074476138054  0.16708511987905394  0.16788571758025775  Uiso  ?  Ce
O1  1.0  0.6346981595303863  0.22675239704993091  0.5081654571556848  Uiso  ?  O
O1  1.0  0.5863652643135755  0.22671482644893434  0.5364096030160852  Uiso  ?  O
O1  1.0  0.598802859810557  0.21326429896708354  0.501271150776398  Uiso  ?  O
Ce1  1.0  0.6170101636117591  0.23218356929190154  0.4794024318242492  Uiso  ?  Ce
Ce1  1.0  0.6653295565999845  0.23110683115789737  0.45178615575427056  Uiso  ?  Ce
O1  1.0  0.6455834125129455  0.21522863845312973  0.47406953749498326  Uiso  ?  O
O1  1.0  0.648520107612194  0.2332071846610969  0.42340216979373324  Uiso  ?  O
O1  1.0  0.659993864548448  0.2014249506039505  0.43985937468089914  Uiso  ?  O
O1  1.0  0.5984527467258054  0.23388643934037212  0.45057207130234794  Uiso  ?  O
O1  1.0  0.6112905038319019  0.19956447216512638  0.4659004059377589  Uiso  ?  O
O1  1.0  0.6162239985896875  0.21865619130865432  0.4149652094318793  Uiso  ?  O
O1  1.0  0.6239478029609511  0.1863424980021989  0.43505984136290893  Uiso  ?  O
Ce1  1.0  0.6437927348053302  0.22122519261056137  0.35769549384646915  Uiso  ?  Ce
Ce1  1.0  0.6411501011612263  0.2016439219353306  0.40964069790607766  Uiso  ?  Ce
Ce1  1.0  0.6933699424940688  0.20299412333631417  0.38403917092740464  Uiso  ?  Ce
O1  1.0  0.6614586941906648  0.21812793880227596  0.3874511431061522  Uiso  ?  O
O1  1.0  0.6715892323421617  0.186254413469713  0.40638397206972654  Uiso  ?  O
O1  1.0  0.6728558306272319  0.20385563795723577  0.35375841054506496  Uiso  ?  O
O1  1.0  0.6837455027818367  0.17303410592447693  0.3710012911790286  Uiso  ?  O
O1  1.0  0.6262080487378613  0.20419336826648815  0.38223003153510743  Uiso  ?  O
O1  1.0  0.635566068045367  0.16975412306446225  0.3991881892530279  Uiso  ?  O
O1  1.0  0.6383906054844728  0.1923069859000737  0.34686707342561385  Uiso  ?  O
Ce1  1.0  0.6917373913381624  0.22170556859395682  0.3291830697093666  Uiso  ?  Ce
Ce1  1.0  0.6655867074369692  0.1920737097489401  0.2928320623885385  Uiso  ?  Ce
Ce1  1.0  0.6657245782887635  0.17531506898935126  0.34230537827605756  Uiso  ?  Ce
Ce1  1.0  0.7119510615643727  0.1780359304931261  0.31267857057202525  Uiso  ?  Ce
O1  1.0  0.6838865955971142  0.18967741094319693  0.3202942070555214  Uiso  ?  O
O1  1.0  0.6983745327397028  0.17536335775468348  0.28609666047934623  Uiso  ?  O
O1  1.0  0.6500630583213164  0.17691460690536606  0.31333145886283587  Uiso  ?  O
O1  1.0  0.6616319738998423  0.15953563176093538  0.2806627388511691  Uiso  ?  O
Ce1  1.0  0.7155530568087195  0.1939686180149648  0.2635254533729916  Uiso  ?  Ce
Ce1  1.0  0.6911987956918042  0.16547986910919243  0.2231836082933938  Uiso  ?  Ce
O1  1.0  0.7089984806709434  0.16213110208215437  0.25252125908868395  Uiso  ?  O
Ce1  1.0  0.7403075627602138  0.16512719707072432  0.19444761279908354  Uiso  ?  Ce
O1  1.0  0.5379731270386664  0.22639865772057535  0.5633209527541954  Uiso  ?  O
O1  1.0  0.49134408609647023  0.2256223791054596  0.5909569497552944  Uiso  ?  O
O1  1.0  0.5069546744240452  0.2126800067383473  0.5560525979952717  Uiso  ?  O
Ce1  1.0  0.5214506813332357  0.22787249977990914  0.5352474686349744  Uiso  ?  Ce
Ce1  1.0  0.5699670475521768  0.23065640527936834  0.5095818952870146  Uiso  ?  Ce
O1  1.0  0.5523674413799781  0.21196257317206238  0.5299749613443597  Uiso  ?  O
O1  1.0  0.5543867506997919  0.23134602401520016  0.4789069443996046  Uiso  ?  O
O1  1.0  0.5661488992696254  0.1988274943711008  0.49221977144101486  Uiso  ?  O
O1  1.0  0.5064902971032796  0.22937738890425868  0.504733770821079  Uiso  ?  O
O1  1.0  0.5177528994266117  0.19671215924582297  0.5219700345270936  Uiso  ?  O
O1  1.0  0.5166672131098964  0.21591875998468343  0.4734051551064621  Uiso  ?  O
O1  1.0  0.5285982954055044  0.1834986242346644  0.4884289779136023  Uiso  ?  O
Ce1  1.0  0.5482121931133285  0.2212764472592321  0.4114729839350464  Uiso  ?  Ce
Ce1  1.0  0.5480949728493868  0.20151252316288346  0.46590267796546897  Uiso  ?  Ce
Ce1  1.0  0.5956224472818336  0.20443689803948378  0.439106631159708  Uiso  ?  Ce
O1  1.0  0.5665865909813352  0.2166597817754365  0.441088494053861  Uiso  ?  O
O1  1.0  0.5752638146596909  0.18535866712397928  0.45803250195546086  Uiso  ?  O
O1  1.0  0.5775660172217497  0.20518279625009858  0.408761826241057  Uiso  ?  O
O1  1.0  0.5899726852152678  0.17118111782139214  0.4286502727938226  Uiso  ?  O
O1  1.0  0.5315689251691171  0.20129817774136236  0.43640256990681336  Uiso  ?  O
O1  1.0  0.5412227719949383  0.1691884401863326  0.4534263771819287  Uiso  ?  O
O1  1.0  0.5417273701846487  0.18701581015974217  0.40480104597632216  Uiso  ?  O
Ce1  1.0  0.5962851022688318  0.21922971919639225  0.38629596976967867  Uiso  ?  Ce
Ce1  1.0  0.5723386694300732  0.19398017543393328  0.3451243548569364  Uiso  ?  Ce
Ce1  1.0  0.5689876255348181  0.1758531327926782  0.39761460661062215  Uiso  ?  Ce
Ce1  1.0  0.618583447050569  0.17314342928440488  0.3695654061681055  Uiso  ?  Ce
O1  1.0  0.5913103684253848  0.1897792363312616  0.37580976867184923  Uiso  ?  O
O1  1.0  0.6001488881227938  0.1752342211547161  0.3408614162654941  Uiso  ?  O
O1  1.0  0.5542103556991301  0.17254002816702008  0.36938598736325484  Uiso  ?  O
O1  1.0  0.5662943109515802  0.16263144460271778  0.33325102221201  Uiso  ?  O
Ce1  1.0  0.6215061890228529  0.19165701715254155  0.31967234839044917  Uiso  ?  Ce
Ce1  1.0  0.5957782850154363  0.16168787879416174  0.2762392244573861  Uiso  ?  Ce
O1  1.0  0.6159096182583353  0.16053432853430907  0.30390100305275175  Uiso  ?  O
Ce1  1.0  0.6441424227098351  0.16263019130647227  0.24922590491765856  Uiso  ?  Ce
O1  1.0  0.4449252604883995  0.22779087021897218  0.6203100728400225  Uiso  ?  O
O1  1.0  0.39781186574836974  0.22315197621554597  0.6449385027576464  Uiso  ?  O
O1  1.0  0.40497546832683284  0.21008207633939097  0.6100193818398538  Uiso  ?  O
Ce1  1.0  0.42795533016990495  0.22574528291012314  0.5893602966829122  Uiso  ?  Ce
Ce1  1.0  0.4769502345981007  0.22770856331159192  0.5631961919438339  Uiso  ?  Ce
O1  1.0  0.45652328147983234  0.2109990293672663  0.5829192271750504  Uiso  ?  O
O1  1.0  0.45743076398955895  0.2289039225391858  0.5298260967356492  Uiso  ?  O
O1  1.0  0.46943258179683567  0.19537228952482139  0.550412287308989  Uiso  ?  O
O1  1.0  0.4099686009552332  0.23183225131364607  0.5598716974468362  Uiso  ?  O
O1  1.0  0.42278315741796113  0.19456295450936997  0.5772441621691851  Uiso  ?  O
O1  1.0  0.4222354233258383  0.21396125604647534  0.5255061793840071  Uiso  ?  O
O1  1.0  0.43340126896616127  0.17842866652861133  0.5453408815283372  Uiso  ?  O
Ce1  1.0  0.45371794421179434  0.21784352987473454  0.4711631527877522  Uiso  ?  Ce
Ce1  1.0  0.4541228871799824  0.1975440904873075  0.5211047557427466  Uiso  ?  Ce
Ce1  1.0  0.49845259187678  0.20260863205980412  0.49334273211838087  Uiso  ?  Ce
O1  1.0  0.47224352781455015  0.21607131862307324  0.49775508660766216  Uiso  ?  O
O1  1.0  0.47969093171081467  0.1820240470168218  0.5160220727979455  Uiso  ?  O
O1  1.0  0.48389224643755935  0.19884631473699035  0.46482864406796204  Uiso  ?  O
O1  1.0  0.49404737341749605  0.1663627067379168  0.4835212421023062  Uiso  ?  O
O1  1.0  0.4348550871725533  0.20054461724623235  0.49435510611503086  Uiso  ?  O
O1  1.0  0.4441238403557629  0.16942431540722272  0.5090455922873425  Uiso  ?  O
O1  1.0  0.44767900736384153  0.18720068103313428  0.4562452193982074  Uiso  ?  O
Ce1  1.0  0.5017841049833669  0.21962045851530682  0.44074942839603365  Uiso  ?  Ce
Ce1  1.0  0.47775826746530203  0.1875107298671985  0.4015711468322088  Uiso  ?  Ce
Ce1  1.0  0.4760743116677051  0.16854950592216938  0.45101327670320274  Uiso  ?  Ce
Ce1  1.0  0.52309456634202  0.17168845619935907  0.42608209165631067  Uiso  ?  Ce
O1  1.0  0.4938089754154919  0.19070575393667522  0.4300570905809542  Uiso  ?  O
O1  1.0  0.507567415001025  0.17631671111814654  0.3933987135050263  Uiso  ?  O
O1  1.0  0.4596719865436257  0.1737420112307064  0.42268908181110043  Uiso  ?  O
Ce1  1.0  0.5232993320407109  0.18975623055049198  0.3733402143530292  Uiso  ?  Ce
Ce1  1.0  0.5019964901531592  0.15926005309190086  0.3337687795486918  Uiso  ?  Ce
Ce1  1.0  0.5519589526780231  0.16046560514635833  0.30594984115486895  Uiso  ?  Ce
O1  1.0  0.3491730669486341  0.22172195908491385  0.6745696781702857  Uiso  ?  O
O1  1.0  0.30181149252790407  0.2227789947517779  0.7014915947160358  Uiso  ?  O
O1  1.0  0.31606583861430176  0.2114334979126982  0.6664091524548  Uiso  ?  O
Ce1  1.0  0.3312282056610883  0.22587148277344637  0.6432356572103539  Uiso  ?  Ce
Ce1  1.0  0.37870413943347864  0.2263133644414568  0.6161330444930326  Uiso  ?  Ce
O1  1.0  0.361599279280853  0.20952321933128162  0.6378270724983434  Uiso  ?  O
O1  1.0  0.364714276112261  0.2291079218664898  0.5891615498024365  Uiso  ?  O
O1  1.0  0.3721831982586138  0.1946680143470465  0.6090375298915364  Uiso  ?  O
O1  1.0  0.3141681581971832  0.22634413913953805  0.6144806210052451  Uiso  ?  O
O1  1.0  0.32619307804242326  0.19498288962932112  0.6332190897697273  Uiso  ?  O
O1  1.0  0.33042396106409355  0.21779749901150022  0.5811362419370462  Uiso  ?  O
O1  1.0  0.34086203900216694  0.18136547566792807  0.6010710411577782  Uiso  ?  O
Ce1  1.0  0.3594104310437329  0.21328217339631034  0.5254803006304308  Uiso  ?  Ce
Ce1  1.0  0.35724103024530074  0.19816634624934362  0.5782943977333505  Uiso  ?  Ce
Ce1  1.0  0.40259751314543585  0.1956356335426309  0.5470321403587981  Uiso  ?  Ce
O1  1.0  0.3756155064799986  0.21478152030986347  0.5502428901469805  Uiso  ?  O
O1  1.0  0.38754452115499566  0.1794813121951465  0.5729193897680352  Uiso  ?  O
O1  1.0  0.3872144626184567  0.1999521435578512  0.518658897038223  Uiso  ?  O
O1  1.0  0.3959772780132118  0.16399443171515643  0.53961696164494  Uiso  ?  O
O1  1.0  0.3413715840006931  0.20132366930631657  0.5480384418549071  Uiso  ?  O
O1  1.0  0.35104029137274567  0.16771875586404011  0.565171928821238  Uiso  ?  O
O1  1.0  0.35051299291344207  0.1845424600844415  0.5130044297272128  Uiso  ?  O
Ce1  1.0  0.4062034400341636  0.21681065225430313  0.4963743848376988  Uiso  ?  Ce
Ce1  1.0  0.3847498314500603  0.18847387652905445  0.4571588066508609  Uiso  ?  Ce
Ce1  1.0  0.3843277158924983  0.16813950557276575  0.5099675319949166  Uiso  ?  Ce
Ce1  1.0  0.42760857775733824  0.17085565486629184  0.48023717728683496  Uiso  ?  Ce
O1  1.0  0.3990359829325061  0.18742260005990233  0.4861946504986405  Uiso  ?  O
O1  1.0  0.4105438816692713  0.16974390809844148  0.4509761405784176  Uiso  ?  O
O1  1.0  0.364103073949579  0.16887063303988412  0.4802609971676977  Uiso  ?  O
Ce1  1.0  0.43154371233664696  0.18713150555708308  0.4274351502420285  Uiso  ?  Ce
Ce1  1.0  0.45480904988035814  0.15802659956828857  0.36104914824805084  Uiso  ?  Ce
O1  1.0  0.19546920957829614  0.23500069171328092  0.7874990367537777  Uiso  ?  O
O1  1.0  0.25355591728303967  0.2215985271656309  0.7286522959276563  Uiso  ?  O
O1  1.0  0.20759287241929947  0.22029341205742548  0.75273170639692  Uiso  ?  O
O1  1.0  0.21860730296243563  0.20879652273801122  0.7214786100072905  Uiso  ?  O
Ce1  1.0  0.2374598270956859  0.22427286151190692  0.7020461695760256  Uiso  ?  Ce
Ce1  1.0  0.28877871031922375  0.22612137398352444  0.6716573872509678  Uiso  ?  Ce
O1  1.0  0.2682478893294714  0.20862111944423298  0.6921932284961642  Uiso  ?  O
O1  1.0  0.26602198609813577  0.2272899144962916  0.643060475558233  Uiso  ?  O
O1  1.0  0.2777947666418109  0.1930481879582233  0.6565424760222974  Uiso  ?  O
O1  1.0  0.22044793809916932  0.2270863025480833  0.6693417450584799  Uiso  ?  O
O1  1.0  0.2303625295059786  0.19396658944528952  0.6892890699927521  Uiso  ?  O
O1  1.0  0.2368703166459023  0.21325269140165026  0.6362457725518448  Uiso  ?  O
O1  1.0  0.24408466835382459  0.17789071044942512  0.6523772018086801  Uiso  ?  O
Ce1  1.0  0.265837362666253  0.21180153551474482  0.5786794442213351  Uiso  ?  Ce
Ce1  1.0  0.26404889361620965  0.1934160466067396  0.6308303858920628  Uiso  ?  Ce
Ce1  1.0  0.31109600174079316  0.19635071759279948  0.6050059550976913  Uiso  ?  Ce
O1  1.0  0.280977110239809  0.21518323851231166  0.6089627251994949  Uiso  ?  O
O1  1.0  0.29056832920383  0.18273082262325085  0.6247815092962032  Uiso  ?  O
O1  1.0  0.29166637099865983  0.19874140293210388  0.5756136080116001  Uiso  ?  O
O1  1.0  0.30434307286113743  0.164823147412606  0.5933355820004239  Uiso  ?  O
O1  1.0  0.24309698125663717  0.19830643583842  0.6032175619041151  Uiso  ?  O
O1  1.0  0.2545864872392119  0.16534343063243057  0.6193019593895924  Uiso  ?  O
O1  1.0  0.25491959316689106  0.1838590150610821  0.5689558192424752  Uiso  ?  O
Ce1  1.0  0.3102325830816444  0.21631468968840525  0.5526025500477653  Uiso  ?  Ce
Ce1  1.0  0.2867100753347038  0.1858872531842189  0.5120644169133098  Uiso  ?  Ce
Ce1  1.0  0.28589862882003825  0.1686443841038383  0.5611287625606978  Uiso  ?  Ce
Ce1  1.0  0.33310823232420456  0.16871350983150613  0.5356099400482003  Uiso  ?  Ce
O1  1.0  0.3040900246511936  0.18484249586976095  0.5398173945446909  Uiso  ?  O
O1  1.0  0.31607899392867606  0.17080987264676623  0.5095430660667661  Uiso  ?  O
O1  1.0  0.2704134372892306  0.16957805366103618  0.5325777501460113  Uiso  ?  O
Ce1  1.0  0.33609554829022265  0.18569077045312185  0.4812369165529651  Uiso  ?  Ce
O1  1.0  0.1459010549259325  0.23245164946050295  0.8191660836955625  Uiso  ?  O
O1  1.0  0.16123010192020212  0.2207907661079357  0.7843352313882131  Uiso  ?  O
Ce1  1.0  0.1880869997003865  0.22395464546803726  0.7250786037958626  Uiso  ?  Ce
O1  1.0  0.1725237728097937  0.20772693133450545  0.7486245646470892  Uiso  ?  O
O1  1.0  0.17252052151670175  0.22445764950211364  0.7000155555076625  Uiso  ?  O
O1  1.0  0.18439682242844335  0.19322221697495873  0.7126401376428195  Uiso  ?  O
O1  1.0  0.14662010691072005  0.17804380191410596  0.7104366681546793  Uiso  ?  O
Ce1  1.0  0.16752292318086404  0.2126288074554688  0.6368858932857282  Uiso  ?  Ce
Ce1  1.0  0.16563812737871642  0.19144622907268835  0.6846278037159356  Uiso  ?  Ce
Ce1  1.0  0.21450026460626506  0.19275053040046666  0.6584764146191514  Uiso  ?  Ce
O1  1.0  0.18543995568916477  0.21142286152938478  0.6639062761886576  Uiso  ?  O
O1  1.0  0.1968560418405757  0.17904431103059318  0.67937110109951  Uiso  ?  O
O1  1.0  0.1964774166335078  0.19528102901162925  0.6277164594826343  Uiso  ?  O
O1  1.0  0.20692033709688457  0.16213391108358297  0.6465855054575982  Uiso  ?  O
O1  1.0  0.14904345093323948  0.19650235716875078  0.6571432927054777  Uiso  ?  O
O1  1.0  0.1610676026101056  0.1639941541732096  0.6763299182754103  Uiso  ?  O
O1  1.0  0.16306435675173975  0.1801431974501829  0.6221783655516196  Uiso  ?  O
Ce1  1.0  0.21813613961968847  0.2138935488993253  0.6058573575416332  Uiso  ?  Ce
Ce1  1.0  0.19215317163466542  0.185448361984347  0.5685993265422026  Uiso  ?  Ce
Ce1  1.0  0.19166375641084682  0.16822444905498535  0.6185539113119823  Uiso  ?  Ce
Ce1  1.0  0.238897901646356  0.1656573724927058  0.5924548261237742  Uiso  ?  Ce
O1  1.0  0.20616791769408993  0.18153359672876895  0.5941538844408235  Uiso  ?  O
O1  1.0  0.22262262745676362  0.16682510643997372  0.5612244882613211  Uiso  ?  O
O1  1.0  0.17386655393074799  0.16750833370722784  0.587945452265781  Uiso  ?  O
Ce1  1.0  0.23924398882529238  0.1872312322776463  0.5392568666227098  Uiso  ?  Ce
Ce1  1.0  0.14574963925564996  0.18577806704394176  0.5971202253782686  Uiso  ?  Ce
O1  1.0  0.7497723303953756  0.22335089310740228  0.598062483020074  Uiso  ?  O
O1  1.0  0.7633795627371481  0.20911093809313464  0.5619995177745917  Uiso  ?  O
Ce1  1.0  0.7817136838640262  0.2253945420567761  0.5374436753474119  Uiso  ?  Ce
O1  1.0  0.7614423029113219  0.22621404703600953  0.5108339764080355  Uiso  ?  O
O1  1.0  0.7757514637970832  0.19782430803467732  0.5308148244092623  Uiso  ?  O
O1  1.0  0.7764884075618109  0.21374519742191386  0.4789257775370327  Uiso  ?  O
O1  1.0  0.7855683543723228  0.18186181445536692  0.49219783230509034  Uiso  ?  O
O1  1.0  0.7903147393678495  0.1982672176037131  0.43970091615873386  Uiso  ?  O
O1  1.0  0.6437146365878043  0.23500498041132656  0.6835755754530024  Uiso  ?  O
O1  1.0  0.6865979743134507  0.23483874015012146  0.660522546818285  Uiso  ?  O
O1  1.0  0.7039977923886933  0.2207681984553708  0.6239413735031136  Uiso  ?  O
O1  1.0  0.6537947483209913  0.22318051877833178  0.6531257299602758  Uiso  ?  O
O1  1.0  0.6669760374430403  0.20592406719920733  0.620327266358133  Uiso  ?  O
Ce1  1.0  0.6854153624279878  0.22445073681623648  0.5946410666493144  Uiso  ?  Ce
Ce1  1.0  0.7354718811883243  0.22390865642897978  0.5666256076047624  Uiso  ?  Ce
O1  1.0  0.7138639165776172  0.20987322126659796  0.5904111226676007  Uiso  ?  O
O1  1.0  0.7182546610044184  0.22677244396099386  0.541331955395221  Uiso  ?  O
O1  1.0  0.7284842485209404  0.19130166655617933  0.5550266628842042  Uiso  ?  O
O1  1.0  0.6693153005074797  0.22549211367350086  0.5661092041443202  Uiso  ?  O
O1  1.0  0.6802553399216823  0.19126702609084192  0.5841619075274112  Uiso  ?  O
O1  1.0  0.6789307173000456  0.21223997152030485  0.5322340021839239  Uiso  ?  O
O1  1.0  0.6926955533798111  0.17474383893482634  0.5486098632873001  Uiso  ?  O
Ce1  1.0  0.7132581559656882  0.2129160005099906  0.47441747836554304  Uiso  ?  Ce
Ce1  1.0  0.7110003192986979  0.19552705640868262  0.5260891667347832  Uiso  ?  Ce
Ce1  1.0  0.7559376901205908  0.19841904520266263  0.49898442738477156  Uiso  ?  Ce
O1  1.0  0.7297339319137675  0.21228577259805279  0.5012133833144758  Uiso  ?  O
O1  1.0  0.7401528760966193  0.17955460917822258  0.5225564563328828  Uiso  ?  O
O1  1.0  0.7425814018021129  0.19689109880984182  0.4721942613419127  Uiso  ?  O
O1  1.0  0.7521120975446104  0.1643402807153049  0.4897315632244518  Uiso  ?  O
O1  1.0  0.6959100016937491  0.197249025303148  0.4989233128736575  Uiso  ?  O
O1  1.0  0.7050164639074592  0.1638292007899306  0.5165961699021716  Uiso  ?  O
O1  1.0  0.7060145074624379  0.18356482635917723  0.46502391990157765  Uiso  ?  O
Ce1  1.0  0.7583797852414226  0.21368363198697238  0.4465906746969471  Uiso  ?  Ce
Ce1  1.0  0.7362705064093565  0.18536725653586042  0.4058709911521168  Uiso  ?  Ce
Ce1  1.0  0.7347895537540877  0.16600462457013102  0.4598673821439019  Uiso  ?  Ce
Ce1  1.0  0.7816860087963797  0.16859239075908225  0.4303270837501815  Uiso  ?  Ce
O1  1.0  0.7519241645128949  0.18341651797165637  0.4399152751120745  Uiso  ?  O
O1  1.0  0.7662671584546014  0.1708067029472034  0.4013666998314401  Uiso  ?  O
O1  1.0  0.7176066078016482  0.1691638309378019  0.4305220535497735  Uiso  ?  O
Ce1  1.0  0.7821631709592114  0.18613749961649184  0.37697806570638187  Uiso  ?  Ce
O1  1.0  0.5471291252978094  0.23260577466355875  0.7431063088274485  Uiso  ?  O
O1  1.0  0.5947488462585785  0.23312078483501522  0.7119234084986688  Uiso  ?  O
O1  1.0  0.6063391418470755  0.21849374154679588  0.6774653366284558  Uiso  ?  O
O1  1.0  0.5604471604982344  0.22118330736949193  0.7079612970653895  Uiso  ?  O
O1  1.0  0.5728514608554118  0.20819157369045926  0.6739237193718265  Uiso  ?  O
Ce1  1.0  0.5899635815288674  0.22180166068507098  0.6499259019581933  Uiso  ?  Ce
Ce1  1.0  0.6404353816938463  0.22310455414721392  0.6244555252169178  Uiso  ?  Ce
O1  1.0  0.6185803831978813  0.20505441574097266  0.6444727300701381  Uiso  ?  O
O1  1.0  0.6228410821201605  0.22421587428207976  0.5951868124059582  Uiso  ?  O
O1  1.0  0.6287672561925133  0.1930855925775418  0.6122416621833718  Uiso  ?  O
O1  1.0  0.5711913695968138  0.22571644867984958  0.6192299433852975  Uiso  ?  O
O1  1.0  0.584058089857479  0.19064765263907268  0.640294265775302  Uiso  ?  O
O1  1.0  0.5855909914266172  0.20913779754296274  0.58868807896418  Uiso  ?  O
O1  1.0  0.5945959945525962  0.17572153890025421  0.6062178100578056  Uiso  ?  O
Ce1  1.0  0.6169107756256893  0.2100455138825755  0.5295857735440989  Uiso  ?  Ce
Ce1  1.0  0.6165887949751809  0.19257821166166858  0.5815464873208075  Uiso  ?  Ce
Ce1  1.0  0.66431236650623  0.19739516815949837  0.5541849956524053  Uiso  ?  Ce
O1  1.0  0.6323797575615048  0.2116128797371923  0.5614125362221977  Uiso  ?  O
O1  1.0  0.6465737304502474  0.1744113625248809  0.57930203381839  Uiso  ?  O
O1  1.0  0.6435860505036941  0.19782200969839217  0.5259853746675222  Uiso  ?  O
O1  1.0  0.6560567424499314  0.16557618421339473  0.5432113141099049  Uiso  ?  O
O1  1.0  0.599866444761948  0.19497760672918008  0.5515808539324417  Uiso  ?  O
O1  1.0  0.6081507944542872  0.16263530691664546  0.569010090158008  Uiso  ?  O
O1  1.0  0.6094766672675528  0.1829277746057248  0.5163827763187364  Uiso  ?  O
Ce1  1.0  0.6634388780662924  0.21250200627300683  0.5023408519479947  Uiso  ?  Ce
Ce1  1.0  0.6413314391602296  0.18443814790420976  0.46289928441231637  Uiso  ?  Ce
Ce1  1.0  0.6397585122249817  0.16457777005269372  0.5182005397608862  Uiso  ?  Ce
Ce1  1.0  0.6868376781660884  0.1663370731851138  0.48685195052125013  Uiso  ?  Ce
O1  1.0  0.6591869580913216  0.18265682862797505  0.48998924163320096  Uiso  ?  O
O1  1.0  0.6713363935391139  0.16910932138943674  0.4586836580408111  Uiso  ?  O
O1  1.0  0.6232598405825451  0.16688303898654283  0.483842504220862  Uiso  ?  O
Ce1  1.0  0.6870037193108047  0.18357589162437854  0.4332568975936261  Uiso  ?  Ce
O1  1.0  0.4545574678077861  0.23220912256397613  0.7942930248884359  Uiso  ?  O
O1  1.0  0.4971909668749481  0.23220846134369394  0.7689315216193635  Uiso  ?  O
O1  1.0  0.5114441559574143  0.21831740123970816  0.7361410193960686  Uiso  ?  O
O1  1.0  0.4625514273378293  0.21559424877225497  0.7607325278801514  Uiso  ?  O
O1  1.0  0.47828692457691746  0.20347612613227337  0.7246028318585775  Uiso  ?  O
Ce1  1.0  0.49389173896569527  0.22064169936787062  0.7037784552761811  Uiso  ?  Ce
Ce1  1.0  0.5411801908826454  0.2199016074302377  0.6781163765764728  Uiso  ?  Ce
O1  1.0  0.5268163512132685  0.2040306014044253  0.6996256853884717  Uiso  ?  O
O1  1.0  0.5256933440826074  0.2259466548329351  0.6485367512106028  Uiso  ?  O
O1  1.0  0.5383681220544128  0.19047282873435276  0.6690524310942081  Uiso  ?  O
O1  1.0  0.47655084200177056  0.2211456951385492  0.6732180778393081  Uiso  ?  O
O1  1.0  0.4905448486153164  0.1901513244481329  0.6923178491028036  Uiso  ?  O
O1  1.0  0.49084033126495646  0.20809550679682523  0.6416049582365799  Uiso  ?  O
O1  1.0  0.5020914750069309  0.17422572732745747  0.6586785873198687  Uiso  ?  O
Ce1  1.0  0.5220129886360801  0.21105675918342282  0.5861012709249429  Uiso  ?  Ce
Ce1  1.0  0.5216003714408759  0.19042466897358654  0.6375809186388922  Uiso  ?  Ce
Ce1  1.0  0.5692949274201003  0.19285901872123148  0.6086417155429795  Uiso  ?  Ce
O1  1.0  0.5385149574852295  0.21015201719695079  0.6137130057805189  Uiso  ?  O
O1  1.0  0.5503040446109654  0.17546458243154583  0.6307864200865937  Uiso  ?  O
O1  1.0  0.5527029672484233  0.1948984031719094  0.5802242301967403  Uiso  ?  O
O1  1.0  0.5607473743845894  0.16077810189013894  0.598845657543446  Uiso  ?  O
O1  1.0  0.5050764516318533  0.19612699539910794  0.6090419773073792  Uiso  ?  O
O1  1.0  0.5141383071048665  0.16035694768607495  0.6254646101335397  Uiso  ?  O
O1  1.0  0.5158073926176823  0.1799622826827773  0.5704618488631119  Uiso  ?  O
Ce1  1.0  0.5688770256331724  0.21043123537851388  0.5593136371979702  Uiso  ?  Ce
Ce1  1.0  0.5482226612214536  0.18027259257703246  0.5176552874664019  Uiso  ?  Ce
Ce1  1.0  0.5455100761296133  0.16649353507040443  0.5689082495232796  Uiso  ?  Ce
Ce1  1.0  0.5910544669755414  0.1640409047971153  0.5408679891835533  Uiso  ?  Ce
O1  1.0  0.5611058668420237  0.18065442996921197  0.5463504220379525  Uiso  ?  O
O1  1.0  0.5752774310977035  0.1658238213830921  0.5116201176847757  Uiso  ?  O
O1  1.0  0.526116547940971  0.16327956808121472  0.5399234180579577  Uiso  ?  O
Ce1  1.0  0.591476694134191  0.1837578471044  0.4920321814396819  Uiso  ?  Ce
O1  1.0  0.3590990758452483  0.23046951787539907  0.8514730625131512  Uiso  ?  O
O1  1.0  0.4068378028194379  0.23073837209781337  0.8223713753575131  Uiso  ?  O
O1  1.0  0.41580281094353216  0.21834670573502926  0.7926093844970461  Uiso  ?  O
O1  1.0  0.3718319590466957  0.21574596661835968  0.8175283386646718  Uiso  ?  O
O1  1.0  0.36948475185604357  0.23256694393938615  0.7653516403343883  Uiso  ?  O
O1  1.0  0.3799826231458365  0.2010275658016747  0.7849079759320282  Uiso  ?  O
Ce1  1.0  0.40023598057121124  0.21661459228075913  0.7579869401554353  Uiso  ?  Ce
Ce1  1.0  0.4469232541704175  0.21901607675239576  0.7317904054999304  Uiso  ?  Ce
O1  1.0  0.41798407943178434  0.23465047886862742  0.7395197276099759  Uiso  ?  O
O1  1.0  0.4304263601231661  0.19962679453790233  0.7533131447557703  Uiso  ?  O
O1  1.0  0.42971479967627063  0.2204007774347457  0.7047308509931833  Uiso  ?  O
O1  1.0  0.44168749047402717  0.19005585780644002  0.7216999178938649  Uiso  ?  O
O1  1.0  0.38380453741393555  0.2205997175898765  0.7314713305613432  Uiso  ?  O
O1  1.0  0.39551774221698277  0.1837944758021107  0.7505821241385262  Uiso  ?  O
O1  1.0  0.3955385459748359  0.20523925526575132  0.695306289699999  Uiso  ?  O
O1  1.0  0.4049528818643876  0.17420408000972748  0.7159279090357948  Uiso  ?  O
Ce1  1.0  0.4262426557298515  0.21000772250506186  0.6400054373224713  Uiso  ?  Ce
Ce1  1.0  0.4265483707054863  0.18801213558769125  0.6911095009784576  Uiso  ?  Ce
Ce1  1.0  0.47008391877519357  0.1919498172591188  0.6638578565381855  Uiso  ?  Ce
O1  1.0  0.44441571502217214  0.20889441063762665  0.6708088366162609  Uiso  ?  O
O1  1.0  0.4550179126424045  0.17181752632103503  0.6878109411387007  Uiso  ?  O
O1  1.0  0.45429423925503254  0.18991217379871372  0.6344291101996442  Uiso  ?  O
O1  1.0  0.46593641186136564  0.1596021142584274  0.6522066186080446  Uiso  ?  O
O1  1.0  0.40984191359976446  0.19493126013470402  0.6632029430236109  Uiso  ?  O
O1  1.0  0.4200913733908107  0.1763734543540946  0.6283254997534732  Uiso  ?  O
Ce1  1.0  0.471469771427627  0.20867539097877807  0.6127585539448335  Uiso  ?  Ce
Ce1  1.0  0.450827494728449  0.17855347535352145  0.5687747940205802  Uiso  ?  Ce
Ce1  1.0  0.45023272869817244  0.16237807374536986  0.6228434721810547  Uiso  ?  Ce
Ce1  1.0  0.4971668422376439  0.16288547123908154  0.5952479305898426  Uiso  ?  Ce
O1  1.0  0.46837816807208815  0.17773274605499323  0.6023000378165075  Uiso  ?  O
O1  1.0  0.47911601007623505  0.163629804548734  0.5661070592757087  Uiso  ?  O
O1  1.0  0.433897584784953  0.1642653302779045  0.595406172387717  Uiso  ?  O
Ce1  1.0  0.4992222239840373  0.18268362601417057  0.5456444302333262  Uiso  ?  Ce
O1  1.0  0.3239825633159028  0.21276199077525482  0.8437495401409018  Uiso  ?  O
O1  1.0  0.27333076929322075  0.23055424234551072  0.8225556844495612  Uiso  ?  O
O1  1.0  0.2868338342785375  0.19754984993148691  0.8387252276376437  Uiso  ?  O
Ce1  1.0  0.3054078147161444  0.23602238050107216  0.7642166696061685  Uiso  ?  Ce
Ce1  1.0  0.30727636687795035  0.21438201319075667  0.8159003555263745  Uiso  ?  Ce
Ce1  1.0  0.3527911729827134  0.21519702853938333  0.7875283787932822  Uiso  ?  Ce
O1  1.0  0.3210091481042002  0.2345619396283511  0.7942723946743244  Uiso  ?  O
O1  1.0  0.3332846069202959  0.19961749993888223  0.8126514764788646  Uiso  ?  O
O1  1.0  0.3357230887648093  0.21563884381864484  0.7589312453028091  Uiso  ?  O
O1  1.0  0.3464693910926242  0.18604558259521276  0.7770305595975812  Uiso  ?  O
O1  1.0  0.2878447342583156  0.2179654002700644  0.7878074898161791  Uiso  ?  O
O1  1.0  0.2996539858343817  0.18458826327020053  0.8039498401721209  Uiso  ?  O
O1  1.0  0.30055969908087893  0.20333850274389434  0.7523737015611062  Uiso  ?  O
O1  1.0  0.30983057583448076  0.17148793497720843  0.7711888621528834  Uiso  ?  O
Ce1  1.0  0.33284723526364957  0.20831810470591566  0.6981822184752424  Uiso  ?  Ce
Ce1  1.0  0.3320475124247887  0.18682778813783257  0.748552995859499  Uiso  ?  Ce
Ce1  1.0  0.37650605647297325  0.18787178841123073  0.7205499754983913  Uiso  ?  Ce
O1  1.0  0.3480007646056986  0.2067847831271572  0.7231243069470086  Uiso  ?  O
O1  1.0  0.35808085673780315  0.17169913840624493  0.7421472676043231  Uiso  ?  O
O1  1.0  0.359736886030252  0.19035061598109415  0.6926177461676595  Uiso  ?  O
O1  1.0  0.31503061224711676  0.18781252093839085  0.7144872390562872  Uiso  ?  O
O1  1.0  0.3251873517563451  0.17587991150357374  0.6829722371919348  Uiso  ?  O
Ce1  1.0  0.37850897849189274  0.2109924686738132  0.6676491344800867  Uiso  ?  Ce
Ce1  1.0  0.35677904917864905  0.17821425093152368  0.6290145882665901  Uiso  ?  Ce
Ce1  1.0  0.355449442568352  0.15943072841070022  0.6795052458645089  Uiso  ?  Ce
Ce1  1.0  0.40095909820801134  0.16028323910575337  0.6512432055714292  Uiso  ?  Ce
O1  1.0  0.37119773808885  0.17691993711703818  0.6562609507308723  Uiso  ?  O
O1  1.0  0.38157230324578045  0.16423715491159796  0.6226073113475681  Uiso  ?  O
O1  1.0  0.3370589218264266  0.1614904367791115  0.6492993867915652  Uiso  ?  O
Ce1  1.0  0.4020339010334462  0.17753525718621815  0.6006252598811342  Uiso  ?  Ce
Ce1  1.0  0.21054859184101013  0.23704480198799088  0.818281755787006  Uiso  ?  Ce
Ce1  1.0  0.25850855492227054  0.21556422858589078  0.8456704036280259  Uiso  ?  Ce
O1  1.0  0.23096366401033014  0.23300105305600136  0.8478311985600989  Uiso  ?  O
O1  1.0  0.23984997718002884  0.2172898207321988  0.8133101828867093  Uiso  ?  O
O1  1.0  0.2517813686078912  0.1892663611198486  0.8318640057586144  Uiso  ?  O
O1  1.0  0.19230119924628072  0.21796165351446925  0.842693713569761  Uiso  ?  O
O1  1.0  0.20438474790930422  0.18468089734955884  0.8585939780464639  Uiso  ?  O
O1  1.0  0.20669292476575388  0.2017587363744829  0.8083100379104314  Uiso  ?  O
O1  1.0  0.21689515963459574  0.16939746440763745  0.8269076687203577  Uiso  ?  O
Ce1  1.0  0.2593728782923623  0.23672084912649863  0.7916621911965503  Uiso  ?  Ce
Ce1  1.0  0.23491849771369944  0.20541643541539825  0.7494040443311464  Uiso  ?  Ce
Ce1  1.0  0.23650299350599804  0.18800561037105634  0.8037329356823184  Uiso  ?  Ce
Ce1  1.0  0.2826395708718816  0.18782351458841137  0.7730834076031486  Uiso  ?  Ce
O1  1.0  0.24986144807051353  0.20328798968599737  0.7784708993581039  Uiso  ?  O
O1  1.0  0.26547111507586435  0.17366655603301487  0.7946176346519043  Uiso  ?  O
O1  1.0  0.2644356001962501  0.18695919682687276  0.7460348380734652  Uiso  ?  O
O1  1.0  0.21392773799383205  0.18811193699487408  0.7719064279067144  Uiso  ?  O
O1  1.0  0.22834697987954874  0.17418850184409562  0.7402994931100016  Uiso  ?  O
Ce1  1.0  0.2831374624755833  0.20597175133430415  0.7223494367929072  Uiso  ?  Ce
Ce1  1.0  0.26007179966172717  0.1748958943662261  0.6839285975363147  Uiso  ?  Ce
O1  1.0  0.27930625617615684  0.17564953593970373  0.7110806168884967  Uiso  ?  O
O1  1.0  0.28935513660572776  0.16101220047172046  0.6758850623096384  Uiso  ?  O
O1  1.0  0.2437075083431721  0.16070087118653495  0.7051038283998413  Uiso  ?  O
Ce1  1.0  0.30778363985379764  0.17766876737113727  0.6546333503306816  Uiso  ?  Ce
Ce1  1.0  0.1628501056379195  0.23100719069683676  0.8483192109119455  Uiso  ?  Ce
Ce1  1.0  0.1864032244410151  0.18467481293429402  0.8298630233312211  Uiso  ?  Ce
O1  1.0  0.15803123580143325  0.20258946230654973  0.8337496948465327  Uiso  ?  O
O1  1.0  0.168766715840751  0.16849502921327894  0.853658696985872  Uiso  ?  O
O1  1.0  0.1684589674033632  0.18752003506473286  0.8010962446537988  Uiso  ?  O
Ce1  1.0  0.18745188270728516  0.20498860924505366  0.7768026536336621  Uiso  ?  Ce
Ce1  1.0  0.16633510405757743  0.176642474445911  0.7369498645042928  Uiso  ?  Ce
O1  1.0  0.1836519520626804  0.1729163555160304  0.7655774637202187  Uiso  ?  O
Ce1  1.0  0.21474299940589264  0.17483795391551626  0.7072244426408432  Uiso  ?  Ce
O1  1.0  0.707887151908955  0.22787678182878376  0.8008249636668802  Uiso  ?  O
O1  1.0  0.7581097330987236  0.22717396722047709  0.7762626878013806  Uiso  ?  O
O1  1.0  0.7729170376578433  0.21358302920979672  0.7414121569157431  Uiso  ?  O
O1  1.0  0.7230927907434096  0.2161344891815543  0.7683344765105862  Uiso  ?  O
O1  1.0  0.7224877786511694  0.22978576440376872  0.7163781261929358  Uiso  ?  O
O1  1.0  0.7333818563671979  0.19653190317839656  0.7336340063216334  Uiso  ?  O
Ce1  1.0  0.7536597174766726  0.2350703879124458  0.6610117632958343  Uiso  ?  Ce
Ce1  1.0  0.7545598497481427  0.21633369547544956  0.7144183134453429  Uiso  ?  Ce
O1  1.0  0.7705748691458377  0.23200326371668448  0.6907387113613469  Uiso  ?  O
O1  1.0  0.7824500357381533  0.20298586804402818  0.7040436208515992  Uiso  ?  O
O1  1.0  0.7819922081082925  0.2184283971925239  0.6520707829444259  Uiso  ?  O
O1  1.0  0.7938278376341722  0.18701558939538795  0.6720581874508226  Uiso  ?  O
O1  1.0  0.7357740785218664  0.21651329598762148  0.6814151168371897  Uiso  ?  O
O1  1.0  0.7448763809545657  0.18730269668142158  0.7009341874558949  Uiso  ?  O
O1  1.0  0.7509835996938031  0.20426070262980658  0.6474821384424594  Uiso  ?  O
O1  1.0  0.7589254111368675  0.16875218146734353  0.6635653385921249  Uiso  ?  O
Ce1  1.0  0.7772936047949605  0.2062475272913621  0.591482180236138  Uiso  ?  Ce
Ce1  1.0  0.7791498817640731  0.18710818063973597  0.6419649285569023  Uiso  ?  Ce
O1  1.0  0.7965867861072606  0.20457950480696052  0.6187390134740062  Uiso  ?  O
O1  1.0  0.7584749808196602  0.18938997912339894  0.6120787833669886  Uiso  ?  O
O1  1.0  0.7746866178231538  0.17537957369663318  0.5792762281795744  Uiso  ?  O
O1  1.0  0.7857707911289615  0.1604426649374364  0.5459900326941144  Uiso  ?  O
O1  1.0  0.6142496547245034  0.2260335772610019  0.8567025261280068  Uiso  ?  O
O1  1.0  0.6622286531443929  0.2253220187879342  0.8278570677555243  Uiso  ?  O
O1  1.0  0.6759354620492959  0.2112102607215674  0.7967202767975164  Uiso  ?  O
O1  1.0  0.6298528728281029  0.21175070759635353  0.822235991678282  Uiso  ?  O
O1  1.0  0.6267301992089557  0.2299670660086034  0.7721193167829289  Uiso  ?  O
O1  1.0  0.6402172877917898  0.19712421984742534  0.78987992431531  Uiso  ?  O
Ce1  1.0  0.6564718861669399  0.23410230100581725  0.7135400211420964  Uiso  ?  Ce
Ce1  1.0  0.65849277331656  0.2144713794513051  0.768205468046493  Uiso  ?  Ce
Ce1  1.0  0.7050605500531624  0.21508858926839866  0.7393991708491907  Uiso  ?  Ce
O1  1.0  0.6763625892009817  0.23249056300383567  0.7442182916767035  Uiso  ?  O
O1  1.0  0.686953444202493  0.19592432486472994  0.7617101431664357  Uiso  ?  O
O1  1.0  0.6878597577224421  0.21934080159652372  0.7108871404016003  Uiso  ?  O
O1  1.0  0.7005281422031182  0.18339333435299612  0.7270478293386256  Uiso  ?  O
O1  1.0  0.6417713718323149  0.2159954175554604  0.7377357830929636  Uiso  ?  O
O1  1.0  0.6531402303954105  0.18397079806698755  0.7555725198933906  Uiso  ?  O
O1  1.0  0.652620309818212  0.2011375308824238  0.7034849242456371  Uiso  ?  O
O1  1.0  0.6640129188512948  0.16849182095773976  0.7202869731503868  Uiso  ?  O
Ce1  1.0  0.7073473902433  0.23304942711082396  0.6885970048809713  Uiso  ?  Ce
Ce1  1.0  0.6840777759951101  0.20646135927910098  0.6454310514203706  Uiso  ?  Ce
Ce1  1.0  0.6831876237178237  0.1882004646000584  0.6979553505737266  Uiso  ?  Ce
Ce1  1.0  0.7296257250489505  0.18755222652568326  0.6720011105057249  Uiso  ?  Ce
O1  1.0  0.6990828618139542  0.20239098601757838  0.6738197916348596  Uiso  ?  O
O1  1.0  0.7127281950789721  0.16847761191722274  0.6906530352747874  Uiso  ?  O
O1  1.0  0.7152238505927454  0.18644507596133894  0.6401327687045921  Uiso  ?  O
O1  1.0  0.6680391316015366  0.18659768737784338  0.6685858202025328  Uiso  ?  O
O1  1.0  0.679032089049819  0.17490671326091448  0.637372897578511  Uiso  ?  O
Ce1  1.0  0.7311129885892893  0.20698853658236863  0.6210848353015714  Uiso  ?  Ce
Ce1  1.0  0.7063524433217471  0.17420444715832747  0.5765254829137235  Uiso  ?  Ce
O1  1.0  0.7256112048111621  0.1769064454117479  0.6065259682110515  Uiso  ?  O
O1  1.0  0.7384833496265062  0.15943074349120878  0.5759407319213534  Uiso  ?  O
Ce1  1.0  0.754803023325714  0.17662418558028037  0.5512437541927488  Uiso  ?  Ce
O1  1.0  0.5786296655747613  0.21006923544460923  0.8484419480326966  Uiso  ?  O
O1  1.0  0.5308139789116524  0.22970814501460513  0.8274269364354095  Uiso  ?  O
O1  1.0  0.5475216943435164  0.19575288935640014  0.843417219440614  Uiso  ?  O
Ce1  1.0  0.5670465596126528  0.23044319484417422  0.7715069806022141  Uiso  ?  Ce
Ce1  1.0  0.5604766062657109  0.2100435594117306  0.8238136677668628  Uiso  ?  Ce
Ce1  1.0  0.6121781016144733  0.21558021579648234  0.7934947624869464  Uiso  ?  Ce
O1  1.0  0.582963580165592  0.23120450076401947  0.7973543338799508  Uiso  ?  O
O1  1.0  0.5912442195346396  0.19887856482149674  0.815944681913429  Uiso  ?  O
O1  1.0  0.593497528134011  0.2157026285111477  0.7663224128871302  Uiso  ?  O
O1  1.0  0.6046187783562771  0.18345618575543315  0.7851871582514319  Uiso  ?  O
O1  1.0  0.5467500690732733  0.21429899960063672  0.7937977088079844  Uiso  ?  O
O1  1.0  0.5567218933491322  0.18019676881547772  0.809408844518427  Uiso  ?  O
O1  1.0  0.5571546817378435  0.20008643194172768  0.7612378342839066  Uiso  ?  O
O1  1.0  0.5672604279845554  0.1717117703674316  0.7754294330969536  Uiso  ?  O
Ce1  1.0  0.6129434628348054  0.2310013776955762  0.7407111112878462  Uiso  ?  Ce
Ce1  1.0  0.5886894146445849  0.2037283009942983  0.7031828151427877  Uiso  ?  Ce
Ce1  1.0  0.5852363337265649  0.18351692206308792  0.7522876041099815  Uiso  ?  Ce
Ce1  1.0  0.6358950428703818  0.18422317097951002  0.7245049053056175  Uiso  ?  Ce
O1  1.0  0.6074861622931098  0.20462519899270948  0.7311815073697636  Uiso  ?  O
O1  1.0  0.6156555479540199  0.16598175295383857  0.7466451724650749  Uiso  ?  O
O1  1.0  0.6189794928515827  0.1838712429651969  0.6958390400316877  Uiso  ?  O
O1  1.0  0.5681835902550575  0.1853381368506222  0.7239627508260421  Uiso  ?  O
O1  1.0  0.5811434111306217  0.17299950070887102  0.6902643683685522  Uiso  ?  O
Ce1  1.0  0.6389420340427673  0.2039567020675118  0.6750258636070467  Uiso  ?  Ce
Ce1  1.0  0.6132610497038714  0.17578733846624064  0.6322552390453433  Uiso  ?  Ce
O1  1.0  0.6342812209355667  0.17154904144944855  0.6611267405635801  Uiso  ?  O
Ce1  1.0  0.6604937983363276  0.17448188111717736  0.6074869325156832  Uiso  ?  Ce
Ce1  1.0  0.47020636133807936  0.22855202444851946  0.8246608428673062  Uiso  ?  Ce
Ce1  1.0  0.5141664158839575  0.2130949399856269  0.8497043840360725  Uiso  ?  Ce
O1  1.0  0.4877058476372708  0.22854852465758105  0.8539748518686872  Uiso  ?  O
O1  1.0  0.49903118539078456  0.2111703415681357  0.8206226496475384  Uiso  ?  O
O1  1.0  0.5057685081594573  0.1802674912185061  0.8403229432506715  Uiso  ?  O
O1  1.0  0.4505305521416058  0.21337899246044112  0.845479057846332  Uiso  ?  O
O1  1.0  0.4640689535675274  0.19863509508485633  0.8151083887347882  Uiso  ?  O
O1  1.0  0.47171152406888456  0.1649864733343057  0.8310202280241484  Uiso  ?  O
Ce1  1.0  0.5197877026753804  0.23091627424124336  0.797737424806752  Uiso  ?  Ce
Ce1  1.0  0.49376764523333316  0.19851881848911254  0.7555565979164416  Uiso  ?  Ce
Ce1  1.0  0.4897770992202849  0.18228576230054996  0.8090219291550009  Uiso  ?  Ce
Ce1  1.0  0.5397460617942201  0.18607789512846218  0.782127208686794  Uiso  ?  Ce
O1  1.0  0.5100049090093927  0.20029368155963043  0.7859641007974402  Uiso  ?  O
O1  1.0  0.5214393227728676  0.1670503737256468  0.8027955067695047  Uiso  ?  O
O1  1.0  0.5223079878033325  0.1836813159948805  0.7498700074827339  Uiso  ?  O
O1  1.0  0.4771281765211042  0.1830738545659221  0.7804224132709199  Uiso  ?  O
O1  1.0  0.48707407031275285  0.16952180981323117  0.7484739119536904  Uiso  ?  O
Ce1  1.0  0.540952129366124  0.20174825046494446  0.7297889064511418  Uiso  ?  Ce
Ce1  1.0  0.5207671771706223  0.17203694753886634  0.6899992350050955  Uiso  ?  Ce
O1  1.0  0.5367995036203368  0.1726473646518187  0.7174402526144522  Uiso  ?  O
Ce1  1.0  0.5684590989684873  0.17262508710367638  0.6598462153307043  Uiso  ?  Ce
Ce1  1.0  0.42211272978919245  0.23111024151696613  0.8531102640188238  Uiso  ?  Ce
Ce1  1.0  0.39894926552586685  0.2013539972613476  0.8147763617392424  Uiso  ?  Ce
Ce1  1.0  0.4444727585058243  0.18414081709545294  0.8381069560729975  Uiso  ?  Ce
O1  1.0  0.41663233846757425  0.1962063554829798  0.8401348771525368  Uiso  ?  O
O1  1.0  0.4274591830993853  0.16314023382432624  0.8571949194416228  Uiso  ?  O
O1  1.0  0.428845728126109  0.18199525743647726  0.8085214397208628  Uiso  ?  O
O1  1.0  0.376682070007102  0.18327880419393672  0.8323702254031294  Uiso  ?  O
O1  1.0  0.394654943423536  0.1672304380752541  0.8024968954949452  Uiso  ?  O
Ce1  1.0  0.4487206121791117  0.20180191861705304  0.7818807712579487  Uiso  ?  Ce
Ce1  1.0  0.4252528500778932  0.16965056897678926  0.7419148327840271  Uiso  ?  Ce
O1  1.0  0.44030443348338044  0.16719382123085472  0.773450292981738  Uiso  ?  O
Ce1  1.0  0.46876167861820306  0.1684374220613307  0.7186694551415846  Uiso  ?  Ce
O1  1.0  0.2998767574297572  0.16892711263654223  0.8551284991689729  Uiso  ?  O
Ce1  1.0  0.3512773689240872  0.1964343775785906  0.8391740756380943  Uiso  ?  Ce
Ce1  1.0  0.3278586593467057  0.16820957353051602  0.7976109118638538  Uiso  ?  Ce
O1  1.0  0.34479461940970846  0.1665981480823329  0.8279801107749811  Uiso  ?  O
Ce1  1.0  0.37659526429379464  0.17021098978853225  0.7709204079630884  Uiso  ?  Ce
Ce1  1.0  0.23504691504744762  0.16861932521891623  0.8524541966083272  Uiso  ?  Ce
Ce1  1.0  0.2812404757724564  0.16889067568379937  0.8258092449831151  Uiso  ?  Ce
O1  1.0  0.7909972187460753  0.22321280533681667  0.8331757762463549  Uiso  ?  O
Ce1  1.0  0.7281367896598739  0.22562269914242042  0.8317485141386936  Uiso  ?  Ce
Ce1  1.0  0.7732710046520054  0.20960633060260436  0.8560290611832881  Uiso  ?  Ce
O1  1.0  0.7585965966385741  0.21154512152428537  0.8258636131627987  Uiso  ?  O
O1  1.0  0.765104502966393  0.1782178005231803  0.8420202651457052  Uiso  ?  O
O1  1.0  0.7094105114730612  0.20939082978145493  0.8540874351757263  Uiso  ?  O
O1  1.0  0.7201756874711018  0.19521572590196704  0.8183344096284151  Uiso  ?  O
O1  1.0  0.731647240931898  0.16107459686543088  0.8359466247082189  Uiso  ?  O
Ce1  1.0  0.7739799552271908  0.2262834698519379  0.8033426658708118  Uiso  ?  Ce
Ce1  1.0  0.752102511077524  0.19525615468474344  0.7612370082726879  Uiso  ?  Ce
Ce1  1.0  0.7492473675889173  0.1797618081990761  0.8128008506786979  Uiso  ?  Ce
O1  1.0  0.7700891387341072  0.19616523345345255  0.7920845528138976  Uiso  ?  O
O1  1.0  0.7777677420955593  0.16201364628496562  0.8096442642346117  Uiso  ?  O
O1  1.0  0.7829034112434649  0.1829969367236935  0.7594545148148112  Uiso  ?  O
O1  1.0  0.7322669270105034  0.17889383701132816  0.7852555745209618  Uiso  ?  O
O1  1.0  0.743743896806107  0.16522136567130336  0.7496903698462694  Uiso  ?  O
Ce1  1.0  0.7770306100827578  0.1712998192442493  0.6943746448569055  Uiso  ?  Ce
O1  1.0  0.791887758300491  0.16477096774327968  0.7241952227370174  Uiso  ?  O
Ce1  1.0  0.6799331277676512  0.22294165816258885  0.8581626939302324  Uiso  ?  Ce
Ce1  1.0  0.6545411018251219  0.19441946771322774  0.8194166572895845  Uiso  ?  Ce
Ce1  1.0  0.7010734456287814  0.17671556435121014  0.8414891112402849  Uiso  ?  Ce
O1  1.0  0.6740452864515715  0.19324073090283664  0.8484807383375337  Uiso  ?  O
O1  1.0  0.6870845241198836  0.1777972220262274  0.8118893917663876  Uiso  ?  O
O1  1.0  0.6368729579985613  0.17852643098301904  0.8406288448291352  Uiso  ?  O
O1  1.0  0.6512105607701979  0.16226142227012183  0.8072474065825838  Uiso  ?  O
Ce1  1.0  0.7032402043202439  0.1964876590347718  0.7908433642091783  Uiso  ?  Ce
Ce1  1.0  0.6802410350108201  0.16365228617072333  0.7485453511380085  Uiso  ?  Ce
O1  1.0  0.6999272896373692  0.1645700268676359  0.7776387567093958  Uiso  ?  O
Ce1  1.0  0.7294982217705719  0.16757622191713362  0.7230862168678446  Uiso  ?  Ce
Ce1  1.0  0.6075828825951672  0.1959930837637424  0.8472597423044799  Uiso  ?  Ce
Ce1  1.0  0.5860507135734041  0.16637651686714733  0.804495685191422  Uiso  ?  Ce
O1  1.0  0.6020184460830029  0.1652342400208561  0.8344532879237704  Uiso  ?  O
Ce1  1.0  0.6335001520816061  0.17126521833696826  0.7787469840823742  Uiso  ?  Ce
Ce1  1.0  0.537967058035521  0.16489434139292755  0.8336232036362985  Uiso  ?  Ce
Ce1  1.0  0.7974334689923573  0.16403781825035874  0.83732431906758  Uiso  ?  Ce
O1  1.0  0.38398372376071555  0.15710359988740571  0.18197379531333602  Uiso  ?  O
O1  1.0  0.3339366327029683  0.15679008108597856  0.20935178598156512  Uiso  ?  O
O1  1.0  0.285169301977241  0.15269580602099986  0.23523098673689988  Uiso  ?  O
O1  1.0  0.24037704689330605  0.15012862114984493  0.264058740008947  Uiso  ?  O
Ce1  1.0  0.27146642121843206  0.15607143235589563  0.2069548128645907  Uiso  ?  Ce
Ce1  1.0  0.316017356884927  0.15858926871698864  0.18031064822035264  Uiso  ?  Ce
O1  1.0  0.25259965001676393  0.1584084637271488  0.17753897748972905  Uiso  ?  O
O1  1.0  0.19390965067011773  0.15216930274524468  0.29016338705309563  Uiso  ?  O
O1  1.0  0.1451439904236756  0.15098404702403986  0.31722299251268715  Uiso  ?  O
Ce1  1.0  0.17825878380919208  0.15190209160773288  0.2637736890988239  Uiso  ?  Ce
Ce1  1.0  0.22482994870450196  0.15445040434797652  0.23561779415000822  Uiso  ?  Ce
O1  1.0  0.20786294075371267  0.15560294928944468  0.20594092990337767  Uiso  ?  O
O1  1.0  0.15879504131755745  0.15739257503496437  0.23292057489397477  Uiso  ?  O
Ce1  1.0  0.15574697387671482  0.14436392726116953  0.17099523285103063  Uiso  ?  Ce
O1  1.0  0.6868679519676854  0.15089377438325105  0.16052883961677344  Uiso  ?  O
O1  1.0  0.640462664761825  0.15098588353638273  0.18826197168824196  Uiso  ?  O
O1  1.0  0.591473189343845  0.15070445736290472  0.21438096156093298  Uiso  ?  O
Ce1  1.0  0.6242497931310176  0.14864446098409198  0.15889757576749167  Uiso  ?  Ce
O1  1.0  0.5438093351915709  0.1527783449632105  0.24071385341451929  Uiso  ?  O
O1  1.0  0.4978484565670617  0.14742744127778468  0.2714137759264528  Uiso  ?  O
Ce1  1.0  0.5316312377629165  0.15287341910742328  0.2130508357843568  Uiso  ?  Ce
Ce1  1.0  0.5769916598448704  0.15276351704963131  0.1879363713514665  Uiso  ?  Ce
O1  1.0  0.5574356586209502  0.1548155525481075  0.15515666173287895  Uiso  ?  O
O1  1.0  0.5114413773952221  0.15421306591152037  0.18480105723163126  Uiso  ?  O
O1  1.0  0.44991625619157655  0.14725868415769425  0.29675428296262674  Uiso  ?  O
O1  1.0  0.40327853755708415  0.14580374994086945  0.32809029723739747  Uiso  ?  O
Ce1  1.0  0.4320213964940166  0.14928347642391862  0.2689388205598334  Uiso  ?  Ce
Ce1  1.0  0.48116067355805486  0.15076387456363874  0.23990172727813514  Uiso  ?  Ce
O1  1.0  0.4652847292112565  0.15120284113893145  0.21294717083017603  Uiso  ?  O
O1  1.0  0.4191946455606676  0.1510720091330407  0.23712019734772963  Uiso  ?  O
O1  1.0  0.2978062058961036  0.15860986231214963  0.4145418024520984  Uiso  ?  O
O1  1.0  0.35467597965074804  0.14590916438174703  0.35391156625344666  Uiso  ?  O
O1  1.0  0.30813592793068034  0.14673162109394128  0.37915520546001236  Uiso  ?  O
Ce1  1.0  0.3371058622783157  0.14727441624301754  0.32445081140381193  Uiso  ?  Ce
Ce1  1.0  0.3864790407099987  0.14581713955625297  0.29497750660157784  Uiso  ?  Ce
O1  1.0  0.369915699255263  0.14974395450761346  0.2665368455038183  Uiso  ?  O
O1  1.0  0.318850537966264  0.14795525465792164  0.293115954095108  Uiso  ?  O
O1  1.0  0.19940829498138207  0.15595566945227904  0.4707430713572387  Uiso  ?  O
O1  1.0  0.24810026808591107  0.15756280748502555  0.4413231490850456  Uiso  ?  O
O1  1.0  0.26151683030186035  0.1460311760807878  0.40781674237469956  Uiso  ?  O
Ce1  1.0  0.24282662520743745  0.14476290734533281  0.38128002979424547  Uiso  ?  Ce
Ce1  1.0  0.29129340589611563  0.1468176344100519  0.35210557120651764  Uiso  ?  Ce
O1  1.0  0.27286778089294417  0.1504055377464608  0.3227961143113248  Uiso  ?  O
O1  1.0  0.22886563333012186  0.14711080813051536  0.3514908905408874  Uiso  ?  O
O1  1.0  0.15174505213383907  0.15704798068561684  0.4968071259953573  Uiso  ?  O
Ce1  1.0  0.1474100612567997  0.14594656559329564  0.4338987146872732  Uiso  ?  Ce
Ce1  1.0  0.19731044990214172  0.14615550591673193  0.40675186308089073  Uiso  ?  Ce
O1  1.0  0.17961659460868032  0.14818171877216385  0.37888281030750504  Uiso  ?  O
O1  1.0  0.744486085716863  0.16151855047471317  0.309871830780561  Uiso  ?  O
Ce1  1.0  0.7856014695764619  0.14596513582952242  0.21975749677773304  Uiso  ?  Ce
O1  1.0  0.7709533511421843  0.15022385973290986  0.1906749587265354  Uiso  ?  O
O1  1.0  0.6481466959516184  0.15829130905057798  0.3626664763483915  Uiso  ?  O
O1  1.0  0.6959575166182952  0.15849134028176537  0.33954842841999444  Uiso  ?  O
O1  1.0  0.7058799307520895  0.14544733471834626  0.30531598151868516  Uiso  ?  O
Ce1  1.0  0.7391672132592333  0.14652814401881875  0.24495995230378478  Uiso  ?  Ce
O1  1.0  0.7239519597311865  0.14791424515396204  0.21544974080473092  Uiso  ?  O
O1  1.0  0.6755734885336249  0.14987891643635773  0.24501542698304946  Uiso  ?  O
O1  1.0  0.5525980046177349  0.15472592725108383  0.42038127899118366  Uiso  ?  O
O1  1.0  0.5982639329305279  0.15633369568498068  0.3924226402016012  Uiso  ?  O
O1  1.0  0.614139910245067  0.14452203935008148  0.35575888764301034  Uiso  ?  O
Ce1  1.0  0.5963567738928583  0.14692756501050183  0.3281121212849612  Uiso  ?  Ce
O1  1.0  0.6256229674794087  0.1464795966276389  0.27368216185120403  Uiso  ?  O
O1  1.0  0.5797364153308161  0.14535395270844356  0.29965020212010673  Uiso  ?  O
O1  1.0  0.4581457145840817  0.153864856238148  0.4742641289393319  Uiso  ?  O
O1  1.0  0.505103622474253  0.15589587077317787  0.44681000325021264  Uiso  ?  O
O1  1.0  0.47249458307885056  0.15789734534244154  0.38907625146248986  Uiso  ?  O
Ce1  1.0  0.5489524821046393  0.14421875225753375  0.3573917572692023  Uiso  ?  Ce
O1  1.0  0.5200651854116609  0.15654809296541078  0.3608705657468176  Uiso  ?  O
O1  1.0  0.533402448463549  0.14619087529478403  0.32943141467968323  Uiso  ?  O
O1  1.0  0.36110704505253666  0.1513169997566233  0.5323740068633892  Uiso  ?  O
O1  1.0  0.4102837582527777  0.15348517949138932  0.5043204852173673  Uiso  ?  O
O1  1.0  0.37600615347340133  0.16012055995159064  0.4450280553573081  Uiso  ?  O
Ce1  1.0  0.4095105237763171  0.15960787548955715  0.3880928595674939  Uiso  ?  Ce
Ce1  1.0  0.4050026601137666  0.14458376444910467  0.44228121072661736  Uiso  ?  Ce
O1  1.0  0.4227564808513565  0.15860082678641624  0.4171262803866252  Uiso  ?  O
O1  1.0  0.2682362384750539  0.15015148453667354  0.5880969485040912  Uiso  ?  O
O1  1.0  0.3145091147896831  0.15163903429377518  0.5582752750050379  Uiso  ?  O
O1  1.0  0.282269046289753  0.15658614914622476  0.5030589144304641  Uiso  ?  O
Ce1  1.0  0.31266283066954037  0.1571306208367111  0.44316685983964016  Uiso  ?  Ce
O1  1.0  0.3266182081582404  0.15684464188518196  0.4732624567275954  Uiso  ?  O
Ce1  1.0  0.36097090029552786  0.15731583936142457  0.41632526127099745  Uiso  ?  Ce
O1  1.0  0.17158732832110987  0.14917230322838873  0.6422145663954127  Uiso  ?  O
O1  1.0  0.2186736838024789  0.14770189210621  0.6157287750999694  Uiso  ?  O
O1  1.0  0.18710392056948175  0.15580678880882193  0.5564622384800846  Uiso  ?  O
Ce1  1.0  0.22006423741700057  0.15556021749500273  0.4991442466172295  Uiso  ?  Ce
O1  1.0  0.23366434871325353  0.15379184819880987  0.5263676813731653  Uiso  ?  O
Ce1  1.0  0.2667882636023566  0.15753539538209949  0.47195312303184206  Uiso  ?  Ce
Ce1  1.0  0.16765523876058297  0.15343975578289457  0.5251974271189176  Uiso  ?  Ce
O1  1.0  0.7159729827634059  0.14891752047270873  0.4827229983576374  Uiso  ?  O
O1  1.0  0.7637234634385226  0.15159251729857834  0.4532951421298057  Uiso  ?  O
O1  1.0  0.7295498184922251  0.1561211949849131  0.3964760167756279  Uiso  ?  O
Ce1  1.0  0.7592520892942359  0.15647294890909177  0.33936268279119725  Uiso  ?  Ce
O1  1.0  0.778892208556926  0.15459396508505835  0.368860073650572  Uiso  ?  O
O1  1.0  0.6206856915575075  0.14847760676894223  0.5370561845159691  Uiso  ?  O
O1  1.0  0.6690903395026397  0.14852727877209632  0.5097025522536417  Uiso  ?  O
O1  1.0  0.63645335334868  0.1513183629573953  0.4512383430190311  Uiso  ?  O
Ce1  1.0  0.6644876271696227  0.15387372674565056  0.3966943313685197  Uiso  ?  Ce
O1  1.0  0.6820849447183164  0.15181989547027244  0.4244201544689572  Uiso  ?  O
Ce1  1.0  0.7131651169948201  0.1561861543707735  0.3688173678193443  Uiso  ?  Ce
O1  1.0  0.5243205437703724  0.14448458414614687  0.5901882340229304  Uiso  ?  O
O1  1.0  0.574413300107227  0.14675214024921618  0.5649769991143233  Uiso  ?  O
O1  1.0  0.5380047049396444  0.15187233230737213  0.5067609791533808  Uiso  ?  O
Ce1  1.0  0.5712186503927518  0.15382500248365294  0.44801520144451246  Uiso  ?  Ce
O1  1.0  0.5886354613084993  0.15202859548535153  0.47690608354393116  Uiso  ?  O
Ce1  1.0  0.6170817299978426  0.15383397250441905  0.42106570595517673  Uiso  ?  Ce
O1  1.0  0.41929692458681794  0.15731145198686933  0.6804908769656488  Uiso  ?  O
O1  1.0  0.4310615774789891  0.14671106552695362  0.6483774489354538  Uiso  ?  O
O1  1.0  0.4793091744873965  0.14661287652932878  0.617974326059955  Uiso  ?  O
O1  1.0  0.44563760771247013  0.14929192284739481  0.5595383003425494  Uiso  ?  O
Ce1  1.0  0.4747939944552032  0.15195079416712592  0.5025141903183306  Uiso  ?  Ce
O1  1.0  0.49394698371961804  0.14857841430663912  0.5347892754892868  Uiso  ?  O
Ce1  1.0  0.5241450771047913  0.1538656860887747  0.47646701925621643  Uiso  ?  Ce
O1  1.0  0.3721541012483191  0.1582824515261179  0.7109909008813367  Uiso  ?  O
O1  1.0  0.32404079073903136  0.156756760788648  0.7354416971839464  Uiso  ?  O
O1  1.0  0.34882814682256336  0.14782431848052446  0.6182287689582808  Uiso  ?  O
Ce1  1.0  0.38114710866982493  0.1503423562483439  0.558503792466943  Uiso  ?  Ce
O1  1.0  0.3958700663238999  0.14891258975788862  0.5869373251585299  Uiso  ?  O
Ce1  1.0  0.42536700510482334  0.14804787080504386  0.5302540084597799  Uiso  ?  Ce
O1  1.0  0.27698333766741806  0.15773412510643436  0.761377851919442  Uiso  ?  O
O1  1.0  0.22749128690527798  0.15520997687429042  0.7929513433834612  Uiso  ?  O
Ce1  1.0  0.2600439370238066  0.1582381368826689  0.7348398885739659  Uiso  ?  Ce
Ce1  1.0  0.3070118014750598  0.15957697778462362  0.7062643576833461  Uiso  ?  Ce
O1  1.0  0.2554328977174471  0.14691779524133802  0.6733161461986286  Uiso  ?  O
Ce1  1.0  0.2846917737825401  0.14745785601344247  0.6136902608304372  Uiso  ?  Ce
O1  1.0  0.30195384062960434  0.14760185800446152  0.6442717736607784  Uiso  ?  O
Ce1  1.0  0.33274408501780245  0.14701283264241372  0.5871839495995961  Uiso  ?  Ce
O1  1.0  0.18243032761406286  0.15144074255440565  0.8174119918989753  Uiso  ?  O
Ce1  1.0  0.16607839165436714  0.1557939432607729  0.7891572163571361  Uiso  ?  Ce
Ce1  1.0  0.21228214913703164  0.15681641916118513  0.7601410709681411  Uiso  ?  Ce
O1  1.0  0.19116254401142693  0.15989273103904217  0.7338653141577857  Uiso  ?  O
O1  1.0  0.14970514651381675  0.1600823810272798  0.7612263527402297  Uiso  ?  O
Ce1  1.0  0.19291504377854485  0.14724649899205897  0.6693367066876386  Uiso  ?  Ce
O1  1.0  0.20759177283430963  0.14532856666841368  0.7005548772773704  Uiso  ?  O
Ce1  1.0  0.23825573516397183  0.15100295620516507  0.6418337800099884  Uiso  ?  Ce
O1  1.0  0.7746712497789627  0.15814327933508637  0.6308116846904964  Uiso  ?  O
O1  1.0  0.7228946793677944  0.15419926605526055  0.6588970466138451  Uiso  ?  O
O1  1.0  0.6773834082656397  0.1534010838415928  0.6872459472848723  Uiso  ?  O
Ce1  1.0  0.709107627700476  0.15654047413046807  0.6285635615447489  Uiso  ?  Ce
Ce1  1.0  0.7546701266249634  0.15739961087753152  0.6035917685002218  Uiso  ?  Ce
O1  1.0  0.6882067775099264  0.15909023230899513  0.6009335532355192  Uiso  ?  O
O1  1.0  0.7028967137975055  0.14465782925184736  0.5668322057238986  Uiso  ?  O
Ce1  1.0  0.7339261388119402  0.1464080176528386  0.5095833086805808  Uiso  ?  Ce
O1  1.0  0.7491147361208029  0.1479133430527053  0.5409540852136441  Uiso  ?  O
Ce1  1.0  0.7790946274569889  0.15094832067183367  0.48192751949605267  Uiso  ?  Ce
O1  1.0  0.630102789223319  0.15577769899731003  0.7134611488459126  Uiso  ?  O
O1  1.0  0.5820922407089076  0.1527580494508048  0.7432269838750875  Uiso  ?  O
Ce1  1.0  0.6115885906342684  0.15464596167867725  0.6855783789681901  Uiso  ?  Ce
Ce1  1.0  0.6608166666091146  0.15923242698444925  0.6552759614137375  Uiso  ?  Ce
O1  1.0  0.6442900088413059  0.15929836804994565  0.6284740790327696  Uiso  ?  O
O1  1.0  0.5954531027120131  0.15702333229139306  0.6578634160681427  Uiso  ?  O
O1  1.0  0.6078236193693907  0.14418308377452277  0.6230465000816847  Uiso  ?  O
Ce1  1.0  0.6361285621605828  0.14543697262327257  0.5642916458647621  Uiso  ?  Ce
Ce1  1.0  0.6873667948767429  0.14947018429186015  0.5367992761033389  Uiso  ?  Ce
O1  1.0  0.5338433872761029  0.151784784920408  0.7690666220435641  Uiso  ?  O
O1  1.0  0.48639258416538295  0.15087814190358467  0.7963832085612663  Uiso  ?  O
Ce1  1.0  0.5183520377706748  0.1532820539442329  0.7418093072491485  Uiso  ?  Ce
Ce1  1.0  0.5647632888386036  0.15589077190090445  0.713771503481582  Uiso  ?  Ce
O1  1.0  0.5457592934266162  0.1525006407470746  0.6840812871870591  Uiso  ?  O
O1  1.0  0.4992393612972826  0.15430391977173402  0.7117013407454397  Uiso  ?  O
Ce1  1.0  0.5423719865581513  0.14508786970084314  0.6214820161266711  Uiso  ?  Ce
Ce1  1.0  0.5899209786662328  0.1457712741499111  0.5929674549235256  Uiso  ?  Ce
O1  1.0  0.4392119513667311  0.15041704978518144  0.8251837413446137  Uiso  ?  O
O1  1.0  0.3896066021116828  0.15061254310647032  0.8516786678074014  Uiso  ?  O
Ce1  1.0  0.424115667326237  0.1520633872675196  0.7964606406804318  Uiso  ?  Ce
Ce1  1.0  0.46750261893997924  0.15080407029959214  0.7672163675157476  Uiso  ?  Ce
O1  1.0  0.4505906718181145  0.15379799635197428  0.7400143934758859  Uiso  ?  O
O1  1.0  0.40403502100451477  0.1526966128646719  0.7667626946739398  Uiso  ?  O
Ce1  1.0  0.49543685307595015  0.1453423218799363  0.6505541941793712  Uiso  ?  Ce
Ce1  1.0  0.3268742583790954  0.15009045625916517  0.8508708215770429  Uiso  ?  Ce
Ce1  1.0  0.37345835798751004  0.15160571078860532  0.8235841241191724  Uiso  ?  Ce
O1  1.0  0.3591565106894227  0.15574721265007424  0.794426366713036  Uiso  ?  O
O1  1.0  0.31209586915583676  0.1512894940573397  0.8212571214084318  Uiso  ?  O
O1  1.0  0.26214655175235524  0.15314125355857966  0.8508557330318806  Uiso  ?  O
O1  1.0  0.7909793331890349  0.14938972569147546  0.7769808654073475  Uiso  ?  O
O1  1.0  0.7450017106667797  0.14784508550073308  0.8008091143651614  Uiso  ?  O
Ce1  1.0  0.7758067359557997  0.15029387324651597  0.7462208376373672  Uiso  ?  Ce
O1  1.0  0.75635312990527  0.15222793152453828  0.7167354194738994  Uiso  ?  O
O1  1.0  0.6959594488847839  0.14968318596184355  0.8283542964533297  Uiso  ?  O
O1  1.0  0.6483571921435327  0.14469202619706875  0.8575554420489886  Uiso  ?  O
Ce1  1.0  0.6809462976255829  0.1490991302623062  0.7999378056266785  Uiso  ?  Ce
Ce1  1.0  0.7262709172897166  0.15100334680539343  0.7738927231844981  Uiso  ?  Ce
O1  1.0  0.7091178214279821  0.1513809461336923  0.7440281574617335  Uiso  ?  O
O1  1.0  0.6644279530338707  0.14841063928222592  0.7750638642877797  Uiso  ?  O
Ce1  1.0  0.5851431046170165  0.14520980805317513  0.8576446426623564  Uiso  ?  Ce
Ce1  1.0  0.633637247155502  0.1466983470482361  0.8284605626346081  Uiso  ?  Ce
O1  1.0  0.6146301935027983  0.14776975912819437  0.7990634016615868  Uiso  ?  O
O1  1.0  0.5666395161664484  0.14700307576782212  0.826622691226912  Uiso  ?  O
O1  1.0  0.5207724146361273  0.14987289795443848  0.8562225155087786  Uiso  ?  O
