data_global
_audit_creation_method 'Generated by Python Script'

_symmetry_space_group_name_H-M 'P 1'
_symmetry_Int_Tables_number 1
_symmetry_cell_setting triclinic
loop_
_symmetry_equiv_pos_as_xyz
  'x, y, z'

_cell_length_a    61.11511231029507
_cell_length_b    61.11511231029507
_cell_length_c    61.11511231029507
_cell_angle_alpha 90.0
_cell_angle_beta  90.0
_cell_angle_gamma 90.0

loop_
_atom_site_label
_atom_site_occupancy
_atom_site_fract_x
_atom_site_fract_y
_atom_site_fract_z
_atom_site_adp_type
_atom_site_U_iso_or_equiv
_atom_site_type_symbol
Pt1  1.0  0.5997188694852367  0.43494693460313855  0.6788489503223548  Uiso  ?  Pt
Pt1  1.0  0.5585870295190131  0.4320507249368408  0.702369936254169  Uiso  ?  Pt
Pt1  1.0  0.677543494116501  0.4360559271484235  0.5478472073967224  Uiso  ?  Pt
Pt1  1.0  0.6407328165442671  0.43269922983596015  0.6126105548045027  Uiso  ?  Pt
Pt1  1.0  0.6370997352669275  0.43374139780242393  0.5702989070136188  Uiso  ?  Pt
Pt1  1.0  0.5977609190787941  0.43585770097780274  0.5908676255727201  Uiso  ?  Pt
Pt1  1.0  0.5981628281958555  0.4345987298490272  0.6358483373960082  Uiso  ?  Pt
Pt1  1.0  0.5579132107381714  0.43075038022250683  0.6636378095172372  Uiso  ?  Pt
Pt1  1.0  0.5607946742002815  0.4353076319761085  0.6147599039183609  Uiso  ?  Pt
Pt1  1.0  0.5212233855102751  0.4337238080948914  0.6334058399310648  Uiso  ?  Pt
Pt1  1.0  0.52037537633314  0.4337308316033874  0.6824072186215279  Uiso  ?  Pt
Pt1  1.0  0.4827979025433524  0.4361836541878137  0.6610727125934908  Uiso  ?  Pt
Pt1  1.0  0.7170533636624951  0.43483997596113694  0.4783039450431967  Uiso  ?  Pt
Pt1  1.0  0.7188993636277528  0.4315095982847758  0.4316387680308679  Uiso  ?  Pt
Pt1  1.0  0.6769286861028315  0.43516418197490836  0.45911551506560216  Uiso  ?  Pt
Pt1  1.0  0.6762631705334544  0.4336091066203885  0.49877758127006905  Uiso  ?  Pt
Pt1  1.0  0.6386800943433143  0.4323847904091541  0.5228807821073258  Uiso  ?  Pt
Pt1  1.0  0.6387666982884957  0.43473692979029904  0.47977697841004374  Uiso  ?  Pt
Pt1  1.0  0.5995530150747574  0.43402099759793583  0.5022514127331761  Uiso  ?  Pt
Pt1  1.0  0.5996324005276699  0.4357051527637457  0.544039877649923  Uiso  ?  Pt
Pt1  1.0  0.5602350350066886  0.43488692741678925  0.5670712353643665  Uiso  ?  Pt
Pt1  1.0  0.5617508135352055  0.4342659929446889  0.5227437859732496  Uiso  ?  Pt
Pt1  1.0  0.5242953017905265  0.43579242888074743  0.5458498096748005  Uiso  ?  Pt
Pt1  1.0  0.5208784387234187  0.4355869623462972  0.5891268498260203  Uiso  ?  Pt
Pt1  1.0  0.4832439439648598  0.435027364639592  0.6139569928989208  Uiso  ?  Pt
Pt1  1.0  0.48162388242924775  0.4360874624604889  0.5672815855596378  Uiso  ?  Pt
Pt1  1.0  0.44027199311633414  0.4323301141458426  0.5907185984233316  Uiso  ?  Pt
Pt1  1.0  0.4438297352455404  0.43202293419573423  0.6353890244363939  Uiso  ?  Pt
Pt1  1.0  0.4057122065233093  0.43682535759909485  0.6137939515544397  Uiso  ?  Pt
Pt1  1.0  0.6790153030842208  0.4353790445221441  0.3664011019352089  Uiso  ?  Pt
Pt1  1.0  0.6803653127311807  0.43374413667009487  0.41136462235897253  Uiso  ?  Pt
Pt1  1.0  0.6378059448704887  0.4364421028778442  0.43534842017392883  Uiso  ?  Pt
Pt1  1.0  0.643448678182825  0.4334811401032483  0.38637298607057446  Uiso  ?  Pt
Pt1  1.0  0.6001136272929875  0.4345693134928326  0.4108929027137935  Uiso  ?  Pt
Pt1  1.0  0.5995859887768621  0.4359978245808875  0.45363623625564964  Uiso  ?  Pt
Pt1  1.0  0.5629385134628555  0.4366487402135544  0.477727760536901  Uiso  ?  Pt
Pt1  1.0  0.5593383167689117  0.4364678291001156  0.4323893300778607  Uiso  ?  Pt
Pt1  1.0  0.5236426953518721  0.43581004079924207  0.454941549460554  Uiso  ?  Pt
Pt1  1.0  0.5206095610386167  0.43224304230089683  0.500263367276421  Uiso  ?  Pt
Pt1  1.0  0.480394193783172  0.43308484844801604  0.521293235855852  Uiso  ?  Pt
Pt1  1.0  0.4793476887747425  0.4376462971101788  0.4767334491107832  Uiso  ?  Pt
Pt1  1.0  0.4443845027248385  0.4326172376154914  0.5024051048501982  Uiso  ?  Pt
Pt1  1.0  0.4435142704000506  0.4332541412886457  0.5453221678534286  Uiso  ?  Pt
Pt1  1.0  0.40612695371492213  0.436259086987509  0.5706440887805813  Uiso  ?  Pt
Pt1  1.0  0.4065993469525873  0.43511363058179237  0.5217553108182343  Uiso  ?  Pt
Pt1  1.0  0.36623682285263753  0.4335374680839591  0.5477845540718747  Uiso  ?  Pt
Pt1  1.0  0.36327068778246  0.4358174782599863  0.5886243598723518  Uiso  ?  Pt
Pt1  1.0  0.6399673973686385  0.43532644454414765  0.342777675051623  Uiso  ?  Pt
Pt1  1.0  0.6022583670709537  0.4360135638710164  0.318234348919478  Uiso  ?  Pt
Pt1  1.0  0.6013447051189775  0.4315234450862655  0.36375479472622546  Uiso  ?  Pt
Pt1  1.0  0.5632007551689823  0.43594113386845273  0.38619364510156096  Uiso  ?  Pt
Pt1  1.0  0.5593144041173298  0.43286325656304764  0.34245883684107153  Uiso  ?  Pt
Pt1  1.0  0.5230206602459949  0.4344200792415773  0.36365520610042285  Uiso  ?  Pt
Pt1  1.0  0.5209299439916614  0.43456032943143286  0.4080830504718083  Uiso  ?  Pt
Pt1  1.0  0.48243741647975946  0.4348098301351956  0.4305273196229934  Uiso  ?  Pt
Pt1  1.0  0.4820949890087392  0.4334725164511863  0.3867373101929963  Uiso  ?  Pt
Pt1  1.0  0.44280967340482313  0.43465766073871365  0.40900064794076463  Uiso  ?  Pt
Pt1  1.0  0.4464447772566483  0.4344685565198947  0.4553579868926023  Uiso  ?  Pt
Pt1  1.0  0.4057865445027394  0.43264860130735094  0.47676890803170296  Uiso  ?  Pt
Pt1  1.0  0.403684009395464  0.4341667198185877  0.4309882269136029  Uiso  ?  Pt
Pt1  1.0  0.36612958277508484  0.43376994428816007  0.4533500377938108  Uiso  ?  Pt
Pt1  1.0  0.36377190158051703  0.43445566165238003  0.4986304931898103  Uiso  ?  Pt
Pt1  1.0  0.5227613594964363  0.4333288584258019  0.3159105237249862  Uiso  ?  Pt
Pt1  1.0  0.4830272854368782  0.43621628875138296  0.33808694715455545  Uiso  ?  Pt
Pt1  1.0  0.4446682000418826  0.43288182914672796  0.36590711149025185  Uiso  ?  Pt
Pt1  1.0  0.7315713340720952  0.47193287963047964  0.5486118879573058  Uiso  ?  Pt
Pt1  1.0  0.6901993582389406  0.47356899268167  0.6128412207260082  Uiso  ?  Pt
Pt1  1.0  0.6900426114537999  0.4696890595964559  0.5684491067272803  Uiso  ?  Pt
Pt1  1.0  0.6531950832178043  0.47190999153017427  0.5899569247812214  Uiso  ?  Pt
Pt1  1.0  0.6519287302167738  0.47393713683894756  0.6365544278987434  Uiso  ?  Pt
Pt1  1.0  0.6120403171491924  0.4697761664596478  0.6575828876431821  Uiso  ?  Pt
Pt1  1.0  0.6142023174210194  0.47230514300923376  0.6132391384404069  Uiso  ?  Pt
Pt1  1.0  0.5758888684280025  0.47053788646688044  0.6353348409035077  Uiso  ?  Pt
Pt1  1.0  0.5749973143673076  0.46859762113479725  0.6792970110804577  Uiso  ?  Pt
Pt1  1.0  0.5353704106389984  0.47398248396855175  0.659145197488047  Uiso  ?  Pt
Pt1  1.0  0.4956519590921906  0.47140245221221627  0.6799133466974884  Uiso  ?  Pt
Pt1  1.0  0.7310200664766036  0.47198183420713513  0.4569028734544967  Uiso  ?  Pt
Pt1  1.0  0.7320938220000803  0.47247101149695886  0.5021187834242289  Uiso  ?  Pt
Pt1  1.0  0.6904378601539232  0.47088121747221284  0.5249624111907224  Uiso  ?  Pt
Pt1  1.0  0.69015494552483  0.4737841932775068  0.4782552449660981  Uiso  ?  Pt
Pt1  1.0  0.6501735879407502  0.4702233563284429  0.5034500496394889  Uiso  ?  Pt
Pt1  1.0  0.6539381913929536  0.4719764947204377  0.5481930751561087  Uiso  ?  Pt
Pt1  1.0  0.6142083691937866  0.4733200609675061  0.570072980352428  Uiso  ?  Pt
Pt1  1.0  0.6130784416688736  0.47335726664061945  0.5226494258394476  Uiso  ?  Pt
Pt1  1.0  0.5729469992044234  0.473598118639572  0.5460928747487075  Uiso  ?  Pt
Pt1  1.0  0.5729071108422276  0.47120784385276904  0.5928362226621315  Uiso  ?  Pt
Pt1  1.0  0.5353975399017187  0.47110432045633854  0.6144567461651647  Uiso  ?  Pt
Pt1  1.0  0.5355473359453401  0.47170151442136543  0.5669286395714357  Uiso  ?  Pt
Pt1  1.0  0.49624635655523136  0.47220399966762827  0.5909732156830833  Uiso  ?  Pt
Pt1  1.0  0.4959675648723816  0.47168780701198926  0.6357056129171752  Uiso  ?  Pt
Pt1  1.0  0.45405335388234586  0.4686168530729048  0.659342784873827  Uiso  ?  Pt
Pt1  1.0  0.4568416853420625  0.46932670670724863  0.6142426421927656  Uiso  ?  Pt
Pt1  1.0  0.41725578365821375  0.4709407908414704  0.6333111187930685  Uiso  ?  Pt
Pt1  1.0  0.6925431863904303  0.47171024919976157  0.43359707484996596  Uiso  ?  Pt
Pt1  1.0  0.6916234385237279  0.4727841310875804  0.3870585581699445  Uiso  ?  Pt
Pt1  1.0  0.6499223278198534  0.4722636494357996  0.41164026456211783  Uiso  ?  Pt
Pt1  1.0  0.6539465788600538  0.47069140388012964  0.453744314181251  Uiso  ?  Pt
Pt1  1.0  0.6143759842980416  0.47152803120166054  0.47683742880761976  Uiso  ?  Pt
Pt1  1.0  0.6123289808746711  0.47272413267041324  0.43227375129695567  Uiso  ?  Pt
Pt1  1.0  0.5716398664732928  0.4698101012374931  0.45218617808210787  Uiso  ?  Pt
Pt1  1.0  0.5732278656917208  0.4740338796028868  0.5031480420043886  Uiso  ?  Pt
Pt1  1.0  0.5370137216796246  0.4701990858264416  0.5190663772372553  Uiso  ?  Pt
Pt1  1.0  0.533871848550258  0.4706437960798206  0.47833336333589793  Uiso  ?  Pt
Pt1  1.0  0.495548111162275  0.4723086647585026  0.5021962376401863  Uiso  ?  Pt
Pt1  1.0  0.4966480405360355  0.472094708814393  0.548242526564144  Uiso  ?  Pt
Pt1  1.0  0.4567138292538851  0.470305500028535  0.5655714359986574  Uiso  ?  Pt
Pt1  1.0  0.4585299100836571  0.4717723131806652  0.5185260453793867  Uiso  ?  Pt
Pt1  1.0  0.4135782657137619  0.47337437484019795  0.5434051854724061  Uiso  ?  Pt
Pt1  1.0  0.41420038154770905  0.47141945252048306  0.5902872232314267  Uiso  ?  Pt
Pt1  1.0  0.37704828229190174  0.47289057879412444  0.5682785010456376  Uiso  ?  Pt
Pt1  1.0  0.6524345642848315  0.47259867973187847  0.36713189581902567  Uiso  ?  Pt
Pt1  1.0  0.6161721310567861  0.47183329065594226  0.38982780113254445  Uiso  ?  Pt
Pt1  1.0  0.6118559062398294  0.4705794345170874  0.34165754572370177  Uiso  ?  Pt
Pt1  1.0  0.5739809116601716  0.47337198819409515  0.36148638497278757  Uiso  ?  Pt
Pt1  1.0  0.5725965968547312  0.47073215953182806  0.40887889741708877  Uiso  ?  Pt
Pt1  1.0  0.532297617051012  0.4737009996630652  0.43235162672943345  Uiso  ?  Pt
Pt1  1.0  0.5318255470246644  0.472364445885028  0.3868172653526535  Uiso  ?  Pt
Pt1  1.0  0.498116782572473  0.4688318154886146  0.4065364649132178  Uiso  ?  Pt
Pt1  1.0  0.49922211211079676  0.472729713781553  0.4546516238840026  Uiso  ?  Pt
Pt1  1.0  0.4555766287123836  0.47254936919335855  0.47654352345038287  Uiso  ?  Pt
Pt1  1.0  0.4569859839754731  0.47352090783648526  0.4329998079965196  Uiso  ?  Pt
Pt1  1.0  0.4147268647878376  0.471004323315321  0.4566443264312034  Uiso  ?  Pt
Pt1  1.0  0.4192550989118481  0.4721815686161921  0.49670828766467695  Uiso  ?  Pt
Pt1  1.0  0.3793121088173937  0.47280582314910113  0.52089770725175  Uiso  ?  Pt
Pt1  1.0  0.37753248054890515  0.47372832066219805  0.4744955007138082  Uiso  ?  Pt
Pt1  1.0  0.5770735083473282  0.47317030711177605  0.3204763619486301  Uiso  ?  Pt
Pt1  1.0  0.5373637802341773  0.4731422473705958  0.33900375129755683  Uiso  ?  Pt
Pt1  1.0  0.537141036298749  0.4722960479014684  0.2966037961035251  Uiso  ?  Pt
Pt1  1.0  0.4963790059702287  0.47329484074580513  0.3195269783098174  Uiso  ?  Pt
Pt1  1.0  0.49538507295552664  0.47056510872295665  0.3643025103309834  Uiso  ?  Pt
Pt1  1.0  0.45464449754202896  0.47272116649037144  0.38767368244787925  Uiso  ?  Pt
Pt1  1.0  0.4565605832399562  0.470211164103668  0.3411559744665754  Uiso  ?  Pt
Pt1  1.0  0.4189243260670147  0.4710559410635171  0.362279193844558  Uiso  ?  Pt
Pt1  1.0  0.4177304673640735  0.4710164779782732  0.4074944507573367  Uiso  ?  Pt
Pt1  1.0  0.3772333810140331  0.47322423454516455  0.43193371065626807  Uiso  ?  Pt
Pt1  1.0  0.37924934462136134  0.4714066699189944  0.3852645090295488  Uiso  ?  Pt
Pt1  1.0  0.3384076886336456  0.4721336078415689  0.45288641680392216  Uiso  ?  Pt
Pt1  1.0  0.7052501291908256  0.5080337583212294  0.5024400271024224  Uiso  ?  Pt
Pt1  1.0  0.6632211280465825  0.5085266732742322  0.5724259440618906  Uiso  ?  Pt
Pt1  1.0  0.6658246707240181  0.5062472213059687  0.5237996799572828  Uiso  ?  Pt
Pt1  1.0  0.6278731349254572  0.5083912064777584  0.5455027192568723  Uiso  ?  Pt
Pt1  1.0  0.6255235442635437  0.5082901919933722  0.5890546641491579  Uiso  ?  Pt
Pt1  1.0  0.5825652081375633  0.5100643193161911  0.610883592161503  Uiso  ?  Pt
Pt1  1.0  0.5881980573981842  0.51036178204377  0.5662343857386761  Uiso  ?  Pt
Pt1  1.0  0.5477442821891862  0.5083575105282839  0.5929465281406139  Uiso  ?  Pt
Pt1  1.0  0.5465333789606539  0.5087101533567385  0.6351118154857854  Uiso  ?  Pt
Pt1  1.0  0.5032467873423002  0.5079089633467149  0.6131584116517872  Uiso  ?  Pt
Pt1  1.0  0.666548079220989  0.5080640680244134  0.48161127303742945  Uiso  ?  Pt
Pt1  1.0  0.670337352550186  0.507215982479351  0.43311737538890194  Uiso  ?  Pt
Pt1  1.0  0.6272652553460785  0.507884253890787  0.4534620703836744  Uiso  ?  Pt
Pt1  1.0  0.6265394874882025  0.5082899861501087  0.5020528520406162  Uiso  ?  Pt
Pt1  1.0  0.5860175076708152  0.5077617549646017  0.5226420868268808  Uiso  ?  Pt
Pt1  1.0  0.5858274928185147  0.5072007515419046  0.47897272454804746  Uiso  ?  Pt
Pt1  1.0  0.5483369435162343  0.5092078281633037  0.5023794334118811  Uiso  ?  Pt
Pt1  1.0  0.5466980890147264  0.5069056339114738  0.5461347034811165  Uiso  ?  Pt
Pt1  1.0  0.5110091250121372  0.5081186696254838  0.5667914193173866  Uiso  ?  Pt
Pt1  1.0  0.5097895345097859  0.5087543771761263  0.523619521276829  Uiso  ?  Pt
Pt1  1.0  0.47357170115883634  0.5116789600047443  0.5453839055400552  Uiso  ?  Pt
Pt1  1.0  0.46895199630482687  0.5061885172839401  0.5874035121863321  Uiso  ?  Pt
Pt1  1.0  0.6256909706159243  0.5025594087070572  0.4100295124542142  Uiso  ?  Pt
Pt1  1.0  0.588413460904645  0.5072052193898215  0.43319487927973355  Uiso  ?  Pt
Pt1  1.0  0.5897371239528292  0.507680115964952  0.38941027561402297  Uiso  ?  Pt
Pt1  1.0  0.5511832972547119  0.5099803286867103  0.41164736198055324  Uiso  ?  Pt
Pt1  1.0  0.5462248016940231  0.5101101051962639  0.45461091590375696  Uiso  ?  Pt
Pt1  1.0  0.5084888499425556  0.5105311980373278  0.47680472470241075  Uiso  ?  Pt
Pt1  1.0  0.5093257817269465  0.5074694152478674  0.4320995661957558  Uiso  ?  Pt
Pt1  1.0  0.470023999760358  0.5082180459872806  0.4556412205249846  Uiso  ?  Pt
Pt1  1.0  0.47233376899619783  0.5104611277241796  0.4981367754007037  Uiso  ?  Pt
Pt1  1.0  0.43257756284631005  0.5095224655594275  0.5211542466763831  Uiso  ?  Pt
Pt1  1.0  0.43128359047223214  0.5082828865967752  0.47670565042406077  Uiso  ?  Pt
Pt1  1.0  0.549158150641438  0.5092632379174395  0.3630749444482418  Uiso  ?  Pt
Pt1  1.0  0.5110526795993527  0.5073218003589379  0.3878643876959788  Uiso  ?  Pt
Pt1  1.0  0.4730274025183868  0.5079391622409205  0.4111266385939882  Uiso  ?  Pt
Pt1  1.0  0.43312094901171605  0.5063854668886439  0.43185556172330614  Uiso  ?  Pt
Pt1  1.0  0.598895377852901  0.5441934984857577  0.49972165820584796  Uiso  ?  Pt
Pt1  1.0  0.5992063241756842  0.5455553686162267  0.5460356620708368  Uiso  ?  Pt
Pt1  1.0  0.5592881594356961  0.5450716265255744  0.5703102905012758  Uiso  ?  Pt
Pt1  1.0  0.5608344317519971  0.54466152066875  0.5245849845325784  Uiso  ?  Pt
Pt1  1.0  0.5201790924042512  0.5438505188116238  0.5453028720869374  Uiso  ?  Pt
Pt1  1.0  0.6009612399976815  0.545089297055491  0.45559967873638785  Uiso  ?  Pt
Pt1  1.0  0.5619053999492721  0.5464884422613757  0.4799772759639332  Uiso  ?  Pt
Pt1  1.0  0.561494493697323  0.5430458399700414  0.4297561812553398  Uiso  ?  Pt
Pt1  1.0  0.5223096204050907  0.5441815873478082  0.45122123757602495  Uiso  ?  Pt
Pt1  1.0  0.5224851586175591  0.5450915294315365  0.5007027093263907  Uiso  ?  Pt
Pt1  1.0  0.4846325329145049  0.5449580300388321  0.5228566005167158  Uiso  ?  Pt
Pt1  1.0  0.4823214491950752  0.546047048007264  0.47857205277888765  Uiso  ?  Pt
Ce1  1.0  0.831842612628745  0.34691711301616823  0.8814955860153937  Uiso  ?  Ce
O1  1.0  0.7963922700551721  0.3593507141364897  0.8810976594021239  Uiso  ?  O
Ce1  1.0  0.8310648007843559  0.34637066152714946  0.8209622920084644  Uiso  ?  Ce
Ce1  1.0  0.8319499474523102  0.34902204262848496  0.7569780370240107  Uiso  ?  Ce
O1  1.0  0.8287173301484551  0.38729570469358676  0.7559930679279357  Uiso  ?  O
O1  1.0  0.8332718634457866  0.38381090558828646  0.82037055936391  Uiso  ?  O
O1  1.0  0.795091769644866  0.35953384565679264  0.7585665586764004  Uiso  ?  O
O1  1.0  0.7945369866341223  0.3609595748728013  0.8182431694729475  Uiso  ?  O
O1  1.0  0.7784160912357876  0.38468900578133974  0.7844400015913404  Uiso  ?  O
Ce1  1.0  0.7952373962324137  0.3996009848271626  0.8178904315535487  Uiso  ?  Ce
O1  1.0  0.7792085952574266  0.3863222545130287  0.8506899994386572  Uiso  ?  O
Ce1  1.0  0.7783200090629601  0.3452028773655801  0.78491331713424  Uiso  ?  Ce
O1  1.0  0.7423674080369014  0.3607051811595134  0.7880250650312995  Uiso  ?  O
Ce1  1.0  0.7773508946282199  0.34841356038101345  0.8501217491089329  Uiso  ?  Ce
Ce1  1.0  0.7226234511255744  0.3505302403376035  0.8805332337301399  Uiso  ?  Ce
Ce1  1.0  0.7208150655449193  0.3466579881763992  0.8145376378704644  Uiso  ?  Ce
Ce1  1.0  0.741753372637616  0.401237410775443  0.8468236842866941  Uiso  ?  Ce
O1  1.0  0.741125153438154  0.3594844745984311  0.8493274343651889  Uiso  ?  O
O1  1.0  0.7249701214176067  0.3854371903032965  0.8176195798684525  Uiso  ?  O
O1  1.0  0.7221963290893653  0.38991620201078525  0.8818612801353918  Uiso  ?  O
O1  1.0  0.7041544396593084  0.40984620998594856  0.8487609004502167  Uiso  ?  O
O1  1.0  0.6849330305517689  0.35882671439043545  0.8183882078931932  Uiso  ?  O
O1  1.0  0.6853448075415793  0.3596906809829917  0.8794687166173859  Uiso  ?  O
O1  1.0  0.6689479364725123  0.38702604515731337  0.8472685380051304  Uiso  ?  O
Ce1  1.0  0.66880999078175  0.34818312091993087  0.8467437905756772  Uiso  ?  Ce
O1  1.0  0.6349288322319189  0.36067894662420835  0.848124931041703  Uiso  ?  O
Ce1  1.0  0.6163591716103805  0.3470436100687331  0.8811503063721592  Uiso  ?  Ce
O1  1.0  0.6126984590050802  0.3880675256217188  0.8784097791229207  Uiso  ?  O
O1  1.0  0.5766122550613056  0.3592086248285693  0.8769670054372899  Uiso  ?  O
Ce1  1.0  0.8275768366291144  0.34819829340282843  0.6933184166490686  Uiso  ?  Ce
Ce1  1.0  0.8315264784107443  0.3475395527024776  0.6318419485477459  Uiso  ?  Ce
O1  1.0  0.8308331491694885  0.3870217676096739  0.6280197419817859  Uiso  ?  O
O1  1.0  0.8318102791319238  0.38655326104061727  0.6908107502433692  Uiso  ?  O
O1  1.0  0.8161284054148691  0.4117527735029648  0.6618722861387069  Uiso  ?  O
O1  1.0  0.7958584101895997  0.35818827583243246  0.6332050193089798  Uiso  ?  O
O1  1.0  0.7977864715935479  0.359856988359479  0.6960682705163241  Uiso  ?  O
O1  1.0  0.7783830401865075  0.38609402141969346  0.663952954813985  Uiso  ?  O
Ce1  1.0  0.7964876389709794  0.3995432941323685  0.755428835075274  Uiso  ?  Ce
Ce1  1.0  0.7978105671024501  0.3985444027326664  0.6908786063302006  Uiso  ?  Ce
O1  1.0  0.812894666748708  0.4124403684760872  0.7230671965711366  Uiso  ?  O
O1  1.0  0.7785103485213901  0.3831043345030086  0.7242035900107806  Uiso  ?  O
O1  1.0  0.7608698484402507  0.412581663360791  0.693558126238899  Uiso  ?  O
O1  1.0  0.7630045959189641  0.4105698827809715  0.7526514239461451  Uiso  ?  O
Ce1  1.0  0.7774575394922696  0.34400212352042403  0.6634045239745546  Uiso  ?  Ce
O1  1.0  0.7419403076045076  0.3600701932034116  0.661022895172781  Uiso  ?  O
Ce1  1.0  0.7816187441676599  0.34455683120429775  0.7248835734482931  Uiso  ?  Ce
Ce1  1.0  0.7229886259419446  0.34548687777076664  0.7558167709068191  Uiso  ?  Ce
Ce1  1.0  0.7254776157191724  0.34654633702697446  0.6922252554631475  Uiso  ?  Ce
Ce1  1.0  0.7397239139503348  0.40080648191677287  0.7267474168202578  Uiso  ?  Ce
O1  1.0  0.7375023374813177  0.3603829865592834  0.7255221939117754  Uiso  ?  O
O1  1.0  0.7240930596286121  0.38666683046364825  0.694306593942798  Uiso  ?  O
O1  1.0  0.7234116610750271  0.3877518695663293  0.7545873682237295  Uiso  ?  O
O1  1.0  0.7051180701960541  0.41059141464935034  0.7235193685934752  Uiso  ?  O
O1  1.0  0.6878438417062757  0.35894054421934274  0.6939034830113368  Uiso  ?  O
O1  1.0  0.6851586041591108  0.3601661585373764  0.7580319609208445  Uiso  ?  O
O1  1.0  0.6684090887683887  0.3877590850091158  0.7243624025346274  Uiso  ?  O
Ce1  1.0  0.7418450478635564  0.39629210518047936  0.7877435026375909  Uiso  ?  Ce
Ce1  1.0  0.6875419811497274  0.3967697019607894  0.8178844692796475  Uiso  ?  Ce
Ce1  1.0  0.6848394895104655  0.39838320015493506  0.7551676731365753  Uiso  ?  Ce
O1  1.0  0.704394168813566  0.41150343108227355  0.7845551974606579  Uiso  ?  O
O1  1.0  0.6686158950929164  0.3853114179792045  0.7869356159576473  Uiso  ?  O
O1  1.0  0.6519813642395161  0.41178860528663724  0.7530026489387565  Uiso  ?  O
O1  1.0  0.6516861194495656  0.4098388971106551  0.8166203817392603  Uiso  ?  O
Ce1  1.0  0.6648868577600628  0.3496435730865128  0.7238596844767394  Uiso  ?  Ce
O1  1.0  0.6322040244834812  0.36096163344553966  0.7238974774835785  Uiso  ?  O
Ce1  1.0  0.6687701459971528  0.34806281105657083  0.7871386297335209  Uiso  ?  Ce
Ce1  1.0  0.6145222077814729  0.3454704541956631  0.8147626816173408  Uiso  ?  Ce
Ce1  1.0  0.6136260052372027  0.3479907605970146  0.753486528799525  Uiso  ?  Ce
Ce1  1.0  0.6341149630898189  0.40124730076480825  0.7855095553865368  Uiso  ?  Ce
O1  1.0  0.6327755187701716  0.35881286909371873  0.7855586401821896  Uiso  ?  O
O1  1.0  0.6137300351564092  0.3839487656304568  0.755538687670373  Uiso  ?  O
O1  1.0  0.6154232199684175  0.3844683844456276  0.819875125491404  Uiso  ?  O
O1  1.0  0.593934898616622  0.4093993515870162  0.7857318037095976  Uiso  ?  O
O1  1.0  0.577908890543207  0.36084797243783956  0.7551229125207775  Uiso  ?  O
O1  1.0  0.5757333693447577  0.3611810975404043  0.8153129557304353  Uiso  ?  O
O1  1.0  0.5587790201980462  0.3838948355494917  0.7880645888653064  Uiso  ?  O
Ce1  1.0  0.6335850367020308  0.401372410860972  0.8469383737305424  Uiso  ?  Ce
Ce1  1.0  0.5785975378701169  0.4000882149577412  0.8783346237448073  Uiso  ?  Ce
Ce1  1.0  0.5807441793004412  0.3965981333272972  0.8167590287223033  Uiso  ?  Ce
O1  1.0  0.5979471101305193  0.4101281422942923  0.8466995663296527  Uiso  ?  O
O1  1.0  0.5607023554050539  0.38973591047253314  0.846114439689485  Uiso  ?  O
O1  1.0  0.5410085967153313  0.41083666217211456  0.8166033441723034  Uiso  ?  O
O1  1.0  0.5420964842227067  0.412196256239962  0.8809393252783958  Uiso  ?  O
Ce1  1.0  0.557050197765744  0.3491410573666383  0.784060999340533  Uiso  ?  Ce
O1  1.0  0.5233371448402935  0.3605713765845761  0.7845033415795244  Uiso  ?  O
Ce1  1.0  0.5591459681474712  0.3461065425850663  0.8475086584693249  Uiso  ?  Ce
Ce1  1.0  0.5055975738809668  0.34574172263301856  0.8788946438893082  Uiso  ?  Ce
Ce1  1.0  0.5037778633712529  0.3442019482032704  0.8179426618595756  Uiso  ?  Ce
Ce1  1.0  0.5248105211889881  0.40030030630309676  0.8478625448342915  Uiso  ?  Ce
O1  1.0  0.5248431420155328  0.3599219754649518  0.8508892279549208  Uiso  ?  O
O1  1.0  0.5048800707153159  0.3887180208716012  0.8173355355296283  Uiso  ?  O
O1  1.0  0.5048784203725998  0.3904691177004418  0.8797316627826313  Uiso  ?  O
O1  1.0  0.4887326846616821  0.41435686783752707  0.8468821461799863  Uiso  ?  O
O1  1.0  0.4717992717540485  0.3582775737399801  0.8165231399841751  Uiso  ?  O
O1  1.0  0.46869623663892906  0.3622141958659586  0.8792420708363181  Uiso  ?  O
O1  1.0  0.4523656527075826  0.3856015545135861  0.8487313380450303  Uiso  ?  O
Ce1  1.0  0.46883551895578573  0.3986316873432788  0.876798369186309  Uiso  ?  Ce
O1  1.0  0.4324730352532014  0.41075081130283614  0.8812781478479658  Uiso  ?  O
Ce1  1.0  0.44789049999995345  0.34736742647574176  0.849085296246046  Uiso  ?  Ce
O1  1.0  0.4164161685539207  0.359921896520032  0.8485503845643808  Uiso  ?  O
Ce1  1.0  0.39840572347968867  0.34691888864359127  0.8791160231350303  Uiso  ?  Ce
O1  1.0  0.3999043825328054  0.38627112794740376  0.8785839375871123  Uiso  ?  O
O1  1.0  0.3627471658034894  0.3587666373489733  0.8800636626277435  Uiso  ?  O
Ce1  1.0  0.8279657203726295  0.34543801645511335  0.5679279470049576  Uiso  ?  Ce
Ce1  1.0  0.8314810910239187  0.34544360260552204  0.5065895196207368  Uiso  ?  Ce
O1  1.0  0.8326986291267028  0.3843115636662781  0.504345970501854  Uiso  ?  O
O1  1.0  0.8306043279135199  0.3843646277528463  0.5691382589084272  Uiso  ?  O
O1  1.0  0.8126329502813815  0.4132307142491743  0.5330959122353733  Uiso  ?  O
O1  1.0  0.7987704461034847  0.35961480059764367  0.5051869021680228  Uiso  ?  O
O1  1.0  0.7964873087159807  0.36039692733356105  0.5667348770709353  Uiso  ?  O
O1  1.0  0.7789926765330105  0.3858404488874154  0.5381276043734423  Uiso  ?  O
Ce1  1.0  0.7916515413437404  0.39714487586552105  0.6307928333964947  Uiso  ?  Ce
Ce1  1.0  0.7954318933305371  0.4002193604484601  0.5680980187346034  Uiso  ?  Ce
O1  1.0  0.8132714696846081  0.4117916111725488  0.5985377922527287  Uiso  ?  O
O1  1.0  0.7766519391626343  0.38736491909672804  0.6014585177895307  Uiso  ?  O
O1  1.0  0.7608106123650072  0.4094698976491379  0.5667013573641764  Uiso  ?  O
O1  1.0  0.7574968055377056  0.4113360479814506  0.631832211459415  Uiso  ?  O
Ce1  1.0  0.7764804178517056  0.3458685569897258  0.5373069944915365  Uiso  ?  Ce
O1  1.0  0.7420990236271451  0.3618121302233764  0.5355423646615199  Uiso  ?  O
Ce1  1.0  0.7805515284586368  0.348233688470249  0.5997038495682148  Uiso  ?  Ce
Ce1  1.0  0.724224057511347  0.3478364393735232  0.6300411891684775  Uiso  ?  Ce
Ce1  1.0  0.7229934532367664  0.3506308242202031  0.5658825237835482  Uiso  ?  Ce
Ce1  1.0  0.7403157300416662  0.395897970138074  0.6011530190877157  Uiso  ?  Ce
O1  1.0  0.7413370392243425  0.35990166750972546  0.6019330357928977  Uiso  ?  O
O1  1.0  0.7266096171909222  0.38500605438796454  0.5647930347156405  Uiso  ?  O
O1  1.0  0.7221096013776589  0.38752971609611275  0.6286768139730273  Uiso  ?  O
O1  1.0  0.7099394585001433  0.4098299406812152  0.600605890966662  Uiso  ?  O
O1  1.0  0.6849725425797535  0.3594869793380244  0.5684467742053687  Uiso  ?  O
O1  1.0  0.6908595884080714  0.35983206813228796  0.6309153362167129  Uiso  ?  O
O1  1.0  0.6701728576665331  0.38477495018851887  0.5996110122756964  Uiso  ?  O
Ce1  1.0  0.7411196701684403  0.39870921540454557  0.6599358436632623  Uiso  ?  Ce
Ce1  1.0  0.6856324894547576  0.40063812832056167  0.6920903962092161  Uiso  ?  Ce
Ce1  1.0  0.6881163344500969  0.39959114763124587  0.6305069461905027  Uiso  ?  Ce
O1  1.0  0.7058848766629574  0.4077459985212022  0.6623459768885064  Uiso  ?  O
O1  1.0  0.6700589772239635  0.3865586518436155  0.6559614155833626  Uiso  ?  O
O1  1.0  0.6527505929347888  0.4120654381335974  0.6305074901643484  Uiso  ?  O
O1  1.0  0.6483114192433865  0.41221469802818933  0.6926798489993377  Uiso  ?  O
Ce1  1.0  0.668043025533068  0.3490144978066066  0.5971265240154083  Uiso  ?  Ce
O1  1.0  0.6336934636180886  0.3597321437695311  0.5952198216837494  Uiso  ?  O
Ce1  1.0  0.6694542999796459  0.34645058585847066  0.6594211102008941  Uiso  ?  Ce
Ce1  1.0  0.6142831970728495  0.3507248554177801  0.6917699518330459  Uiso  ?  Ce
Ce1  1.0  0.6164985978788159  0.34611060154516415  0.6296148211689845  Uiso  ?  Ce
Ce1  1.0  0.6335179838283234  0.4015755871131107  0.6617101843192134  Uiso  ?  Ce
O1  1.0  0.6342865994503039  0.35915567682266797  0.6604693811893874  Uiso  ?  O
O1  1.0  0.6151020154807493  0.3883364180258758  0.6302134566367852  Uiso  ?  O
O1  1.0  0.612185528635908  0.38336150203044295  0.6950109339808438  Uiso  ?  O
O1  1.0  0.576554306073436  0.36146890785607677  0.629523501377355  Uiso  ?  O
O1  1.0  0.577615215630172  0.3582801535157181  0.6918507497257325  Uiso  ?  O
O1  1.0  0.5629948142905983  0.38771807107805806  0.6613925093946127  Uiso  ?  O
Ce1  1.0  0.6299677070649443  0.3936524426103074  0.7224989338703071  Uiso  ?  Ce
Ce1  1.0  0.5799930436069015  0.3992231621436116  0.7566709642542774  Uiso  ?  Ce
Ce1  1.0  0.5787226590172827  0.39885718085204813  0.690703246391255  Uiso  ?  Ce
O1  1.0  0.6021359946803182  0.4090984018864705  0.7228496089725122  Uiso  ?  O
O1  1.0  0.561539131860208  0.38767603061297223  0.7237206025501091  Uiso  ?  O
O1  1.0  0.5410590346899168  0.4107013297527894  0.7548439271841312  Uiso  ?  O
Ce1  1.0  0.559479475147234  0.3465253732420408  0.6602771577185519  Uiso  ?  Ce
O1  1.0  0.5237281808882398  0.36209121892265683  0.6642733397024941  Uiso  ?  O
Ce1  1.0  0.5609105973625625  0.3485577106571465  0.7249866492008394  Uiso  ?  Ce
Ce1  1.0  0.5052984997243811  0.34506484326909054  0.751842110919233  Uiso  ?  Ce
Ce1  1.0  0.5064710592659101  0.34731905657196255  0.6909980673036722  Uiso  ?  Ce
Ce1  1.0  0.5243215498616448  0.3993643769242181  0.7236436658908962  Uiso  ?  Ce
O1  1.0  0.5251913187014847  0.3630229486118488  0.7260262684398945  Uiso  ?  O
O1  1.0  0.5044242094100483  0.3858447231677677  0.6914811022502765  Uiso  ?  O
O1  1.0  0.5048809593092122  0.3837807063127455  0.7544623571295539  Uiso  ?  O
O1  1.0  0.486546979198462  0.41048926611488173  0.7262556124662832  Uiso  ?  O
O1  1.0  0.46693841144506243  0.3590614684094241  0.6915304545946684  Uiso  ?  O
O1  1.0  0.46934836331185026  0.3618801893460923  0.7570422542286892  Uiso  ?  O
O1  1.0  0.4530919604007398  0.38552581409016645  0.721117298449053  Uiso  ?  O
Ce1  1.0  0.5234752240691981  0.39854939318289406  0.7873146279973623  Uiso  ?  Ce
Ce1  1.0  0.46939395597894856  0.397500929479475  0.8184864685615706  Uiso  ?  Ce
Ce1  1.0  0.46632755627765643  0.40133299411727036  0.7560238967617222  Uiso  ?  Ce
O1  1.0  0.4893685599415419  0.40830046471383014  0.7843069336087903  Uiso  ?  O
O1  1.0  0.45042451099697656  0.385808598198781  0.7841464326592053  Uiso  ?  O
O1  1.0  0.43452040511961587  0.41147116428230135  0.7546755439705393  Uiso  ?  O
O1  1.0  0.43015864973718715  0.4092543972980195  0.8164055421874163  Uiso  ?  O
Ce1  1.0  0.45128538907409416  0.34701869161008536  0.7230682085994582  Uiso  ?  Ce
O1  1.0  0.4136780285549621  0.35964112429358475  0.722788631101351  Uiso  ?  O
Ce1  1.0  0.45080175187269095  0.3472207686863645  0.7837159724765901  Uiso  ?  Ce
Ce1  1.0  0.3967952304827877  0.3466406715883127  0.8186476510516939  Uiso  ?  Ce
Ce1  1.0  0.4004704614425974  0.34592505922388467  0.754018256593433  Uiso  ?  Ce
Ce1  1.0  0.4158342000415533  0.4016735434135786  0.7832985112190467  Uiso  ?  Ce
O1  1.0  0.41699461153110345  0.3552797469834143  0.7855174156884809  Uiso  ?  O
O1  1.0  0.39753252275242557  0.387047932718986  0.7526498417515011  Uiso  ?  O
O1  1.0  0.3979434961911282  0.38680239628307356  0.8171779497963041  Uiso  ?  O
O1  1.0  0.37972934484647  0.4110517862282548  0.7856667319085066  Uiso  ?  O
O1  1.0  0.36168669923027974  0.3604862609670083  0.7537948597953038  Uiso  ?  O
O1  1.0  0.36286614714780735  0.36192887074308244  0.8168445359675474  Uiso  ?  O
O1  1.0  0.3413929022142917  0.38952268750823954  0.784913065866728  Uiso  ?  O
Ce1  1.0  0.41723073992660475  0.39836796146848075  0.8486646387552039  Uiso  ?  Ce
Ce1  1.0  0.3585941398431819  0.39972055865932554  0.8806684270884871  Uiso  ?  Ce
Ce1  1.0  0.35956115084960194  0.39964010652445514  0.815686832529906  Uiso  ?  Ce
O1  1.0  0.37925620522163983  0.4129444497315982  0.8491155488814982  Uiso  ?  O
O1  1.0  0.34192402920584225  0.386528425812596  0.8446847857833931  Uiso  ?  O
O1  1.0  0.3258426581021686  0.4105093353811817  0.8171692352693118  Uiso  ?  O
O1  1.0  0.32697239670502226  0.41013194436614653  0.8802239208768424  Uiso  ?  O
Ce1  1.0  0.34508703901659304  0.3483710369642848  0.785524005051165  Uiso  ?  Ce
O1  1.0  0.30562931863911186  0.3608196140943534  0.785463284548  Uiso  ?  O
Ce1  1.0  0.33980801499032587  0.3481755316696276  0.8463605086655613  Uiso  ?  Ce
Ce1  1.0  0.2867506644986233  0.3469589418625399  0.8823774323527395  Uiso  ?  Ce
Ce1  1.0  0.28728428555194235  0.3480993347662273  0.8172380925109524  Uiso  ?  Ce
Ce1  1.0  0.3038917121775136  0.3997447351444103  0.845192070041883  Uiso  ?  Ce
O1  1.0  0.3088821944197461  0.36126595617507207  0.8463367486284805  Uiso  ?  O
O1  1.0  0.29026373577622366  0.3873725657636144  0.816715400400855  Uiso  ?  O
O1  1.0  0.28702751016179867  0.385549186914089  0.8741549122171767  Uiso  ?  O
O1  1.0  0.27279496525753494  0.41172493817257083  0.8430559685800303  Uiso  ?  O
O1  1.0  0.25554924196289414  0.3593445385624896  0.8176923676791095  Uiso  ?  O
O1  1.0  0.25172477685599204  0.359957312133138  0.8764739418453105  Uiso  ?  O
O1  1.0  0.23442893746887575  0.38837683991297295  0.8450722606110491  Uiso  ?  O
Ce1  1.0  0.24908750288795878  0.3973453704581027  0.8780286044237604  Uiso  ?  Ce
O1  1.0  0.21449284844904198  0.4128151740671823  0.8798797268030993  Uiso  ?  O
Ce1  1.0  0.23485129903586005  0.34728578270021326  0.8481521782976398  Uiso  ?  Ce
O1  1.0  0.20122255232119185  0.3601292418046864  0.8462293304582417  Uiso  ?  O
Ce1  1.0  0.17941259815528343  0.34830321611112003  0.8765084068442646  Uiso  ?  Ce
O1  1.0  0.17795064222565693  0.3850505692048529  0.8772395028501286  Uiso  ?  O
Ce1  1.0  0.8344003500659204  0.34454054558754105  0.44187201430114315  Uiso  ?  Ce
Ce1  1.0  0.8345377608018739  0.34776142980949565  0.3782080963830294  Uiso  ?  Ce
O1  1.0  0.8361724962336962  0.3845090859660638  0.37983812481462426  Uiso  ?  O
O1  1.0  0.8318750696287461  0.3853865415596864  0.440434981805507  Uiso  ?  O
O1  1.0  0.8136950947551083  0.4100107847608812  0.41133217303201  Uiso  ?  O
O1  1.0  0.795011291079567  0.35862733403829455  0.38030741775672366  Uiso  ?  O
O1  1.0  0.7981137128826428  0.36146729066556865  0.44575743126965306  Uiso  ?  O
O1  1.0  0.7788928024061662  0.38462860307611857  0.40854513818632654  Uiso  ?  O
Ce1  1.0  0.7957295934000389  0.4005949816203604  0.5039199549885668  Uiso  ?  Ce
Ce1  1.0  0.798620277813134  0.3979147347544472  0.4421745063569373  Uiso  ?  Ce
O1  1.0  0.8139226446649628  0.4107968278624799  0.4729131027250108  Uiso  ?  O
O1  1.0  0.7777527495003812  0.3864147403247175  0.47182672514814217  Uiso  ?  O
O1  1.0  0.7605875188765071  0.4108307932009816  0.4425248596904635  Uiso  ?  O
O1  1.0  0.7587747534781057  0.41140869236808264  0.5068705075615237  Uiso  ?  O
Ce1  1.0  0.7785732274131925  0.3457016082540394  0.40944667175013877  Uiso  ?  Ce
O1  1.0  0.7411125459698069  0.36241166410266845  0.4090006353171131  Uiso  ?  O
Ce1  1.0  0.7800884886819017  0.3462293237097126  0.4749306634346371  Uiso  ?  Ce
Ce1  1.0  0.7225667514698465  0.3462257533414203  0.5026107589803587  Uiso  ?  Ce
Ce1  1.0  0.7283683140207905  0.3487813267829496  0.4411515076520221  Uiso  ?  Ce
Ce1  1.0  0.7420114812766598  0.3991983411496625  0.4733907335918697  Uiso  ?  Ce
O1  1.0  0.7388004313717444  0.3567154294451727  0.4754847794850734  Uiso  ?  O
O1  1.0  0.7248492572135892  0.3844313245125421  0.44137341820784354  Uiso  ?  O
O1  1.0  0.7252183928712939  0.3877750709350597  0.5009190701829506  Uiso  ?  O
O1  1.0  0.6883652564025653  0.36033849304289683  0.4432219500858922  Uiso  ?  O
O1  1.0  0.6863347176481034  0.35867851262227746  0.5068750949879537  Uiso  ?  O
O1  1.0  0.6705101176617042  0.3864155817362508  0.47391277134244714  Uiso  ?  O
Ce1  1.0  0.7394494614208325  0.397590394861568  0.5357877229049124  Uiso  ?  Ce
Ce1  1.0  0.690459581009783  0.4032805951731751  0.5685819352284243  Uiso  ?  Ce
Ce1  1.0  0.6875190816051404  0.39508930843865175  0.5038347676189575  Uiso  ?  Ce
O1  1.0  0.7028288508817178  0.4129695420008198  0.5370299379816709  Uiso  ?  O
O1  1.0  0.6688202300612244  0.38553559030389994  0.5353747872160532  Uiso  ?  O
O1  1.0  0.6515689501694486  0.41077508991098866  0.5025435663409326  Uiso  ?  O
Ce1  1.0  0.6705973977213974  0.3470483399891085  0.47057576768595466  Uiso  ?  Ce
O1  1.0  0.6375551867677306  0.36236101374945323  0.4702381060151631  Uiso  ?  O
Ce1  1.0  0.6688786829934166  0.34792399757234366  0.5353241156118317  Uiso  ?  Ce
Ce1  1.0  0.6149487887529186  0.3478813828030866  0.5679346518011468  Uiso  ?  Ce
Ce1  1.0  0.6150215189633297  0.3480351351086408  0.5055761518711809  Uiso  ?  Ce
Ce1  1.0  0.6325392708118383  0.3986166231708698  0.5335820918953786  Uiso  ?  Ce
O1  1.0  0.6302672669037206  0.35742744520129394  0.5337780839774845  Uiso  ?  O
O1  1.0  0.6124488502992311  0.38539427298665724  0.5032433144182732  Uiso  ?  O
O1  1.0  0.6157045797918987  0.38770741537727393  0.5671836012936085  Uiso  ?  O
O1  1.0  0.5789662974294534  0.3583522259772559  0.5045781120574628  Uiso  ?  O
O1  1.0  0.58005917436605  0.3598460275272698  0.5698414509021105  Uiso  ?  O
O1  1.0  0.5607936127811364  0.3853336941348284  0.5359705050402953  Uiso  ?  O
Ce1  1.0  0.6335325363960388  0.3996169606482204  0.5967457841551371  Uiso  ?  Ce
Ce1  1.0  0.5804516718323499  0.3997895360325831  0.6303253178973945  Uiso  ?  Ce
Ce1  1.0  0.5792161897379302  0.40088265514053023  0.568503842864052  Uiso  ?  Ce
O1  1.0  0.5609711011951353  0.38463648516690735  0.5960390531659336  Uiso  ?  O
O1  1.0  0.5432595607183422  0.4130978057218622  0.6286822386027547  Uiso  ?  O
Ce1  1.0  0.5611088489340914  0.34657041518375997  0.5360725926032279  Uiso  ?  Ce
O1  1.0  0.5255421005792626  0.3609618237361957  0.5358195461057023  Uiso  ?  O
Ce1  1.0  0.5603131888099059  0.3459371411709889  0.5989311418456059  Uiso  ?  Ce
Ce1  1.0  0.5056100038068049  0.3501796390129063  0.6287526074745433  Uiso  ?  Ce
Ce1  1.0  0.5072651079012023  0.3469291171287988  0.5675454612096608  Uiso  ?  Ce
Ce1  1.0  0.5234383159695992  0.39793705941592866  0.5997086650555015  Uiso  ?  Ce
O1  1.0  0.526774610196461  0.36018007495289106  0.5978160890390429  Uiso  ?  O
O1  1.0  0.505489353109788  0.3846146572587332  0.5679228364222325  Uiso  ?  O
O1  1.0  0.5070499586624617  0.3869137320235162  0.6284545522085017  Uiso  ?  O
O1  1.0  0.4686267606106387  0.3610554163771268  0.5675705816485013  Uiso  ?  O
O1  1.0  0.4726681117363061  0.35824926115462963  0.6303630798639166  Uiso  ?  O
O1  1.0  0.45338568319569794  0.38670412088805783  0.5980852830214948  Uiso  ?  O
Ce1  1.0  0.5215298024778899  0.39885469227731807  0.6599931917230213  Uiso  ?  Ce
Ce1  1.0  0.47415644437688115  0.3990822864818209  0.6896967100583017  Uiso  ?  Ce
Ce1  1.0  0.46893245040949527  0.3978829517754604  0.6278188765221457  Uiso  ?  Ce
O1  1.0  0.4522724194302126  0.38625131292538684  0.6608928783034423  Uiso  ?  O
O1  1.0  0.4326735726499142  0.410656634286621  0.6928765470892736  Uiso  ?  O
Ce1  1.0  0.45231225081163406  0.34542620567038174  0.6003446402013164  Uiso  ?  Ce
O1  1.0  0.4154291384351871  0.3584497387037704  0.5972502619368031  Uiso  ?  O
Ce1  1.0  0.4557772126302566  0.34915299931817617  0.6603007288276973  Uiso  ?  Ce
Ce1  1.0  0.39883170042950067  0.34638487730835177  0.6936475576927708  Uiso  ?  Ce
Ce1  1.0  0.3986598773160648  0.34773240713224457  0.6266674246836279  Uiso  ?  Ce
Ce1  1.0  0.41806097258095865  0.39741259024201936  0.6601292576664746  Uiso  ?  Ce
O1  1.0  0.41840751199960247  0.3590234586923374  0.6581014232762777  Uiso  ?  O
O1  1.0  0.3966391341463197  0.3847979129719114  0.6272238990499912  Uiso  ?  O
O1  1.0  0.3951974318631525  0.3897201545419572  0.6923566276786847  Uiso  ?  O
O1  1.0  0.37959383001469665  0.41085072358184577  0.6594203661225476  Uiso  ?  O
O1  1.0  0.36475477404227147  0.3589778473417316  0.6279254459143306  Uiso  ?  O
O1  1.0  0.3629002297018201  0.36107122638067585  0.6916820377976953  Uiso  ?  O
O1  1.0  0.3421930631260749  0.386930256822675  0.6607122964579452  Uiso  ?  O
Ce1  1.0  0.4174699715395994  0.3987021791923691  0.7236783819912488  Uiso  ?  Ce
Ce1  1.0  0.3627864644968097  0.39997243474261346  0.7552551145462553  Uiso  ?  Ce
Ce1  1.0  0.36246582141516087  0.3969654561213666  0.6874073656017715  Uiso  ?  Ce
O1  1.0  0.37950090496212935  0.41287927172711436  0.7242702297491308  Uiso  ?  O
O1  1.0  0.3429752326686771  0.3867773500774375  0.7203268335290974  Uiso  ?  O
O1  1.0  0.3249353431125121  0.4073697194252943  0.6879452837064715  Uiso  ?  O
O1  1.0  0.3251247302977086  0.4099776303952739  0.7562437537127624  Uiso  ?  O
Ce1  1.0  0.3436942878494278  0.3435014082715082  0.6625391875257106  Uiso  ?  Ce
O1  1.0  0.3095499240289273  0.35923439748800956  0.6585377008050229  Uiso  ?  O
Ce1  1.0  0.34632747506342126  0.3490993753185925  0.7213366577151935  Uiso  ?  Ce
Ce1  1.0  0.29044650244720704  0.3481597554489485  0.7526023076743766  Uiso  ?  Ce
Ce1  1.0  0.2897002680944057  0.34706286532973907  0.6925135674341852  Uiso  ?  Ce
Ce1  1.0  0.30648400618203847  0.3994297174616638  0.7210372457376983  Uiso  ?  Ce
O1  1.0  0.3068962001194073  0.3599886776604323  0.7227584594829414  Uiso  ?  O
O1  1.0  0.28889293061817745  0.3870779927998665  0.691943962095252  Uiso  ?  O
O1  1.0  0.28994859996079825  0.38672744552551225  0.7519426570578149  Uiso  ?  O
O1  1.0  0.268969060064352  0.413500646765126  0.7193129426848766  Uiso  ?  O
O1  1.0  0.25254737160205  0.3601595046624003  0.6901525023005322  Uiso  ?  O
O1  1.0  0.2508713171417352  0.3596984420370183  0.7532452761642052  Uiso  ?  O
O1  1.0  0.23340609128551756  0.38754980249862625  0.7228402124079242  Uiso  ?  O
Ce1  1.0  0.30722491978275024  0.39644596734581117  0.7837236366996028  Uiso  ?  Ce
Ce1  1.0  0.2559775815007207  0.39701832919502855  0.8168443707566466  Uiso  ?  Ce
Ce1  1.0  0.25305485064814665  0.3980582843199358  0.7506887484033081  Uiso  ?  Ce
O1  1.0  0.2719686126111079  0.4140413238510814  0.7846275790691188  Uiso  ?  O
O1  1.0  0.23247008515590145  0.38834392942661866  0.7847408885180243  Uiso  ?  O
O1  1.0  0.21874231987510237  0.40815182960716945  0.7537206042658984  Uiso  ?  O
O1  1.0  0.21760835478160961  0.4134477259925091  0.8144977158882749  Uiso  ?  O
Ce1  1.0  0.23432639478713452  0.34698934800605424  0.7200551608686229  Uiso  ?  Ce
O1  1.0  0.20088638765174918  0.36004834545097913  0.7179580196867386  Uiso  ?  O
Ce1  1.0  0.23523780315808202  0.3482494069350047  0.7807580151940173  Uiso  ?  Ce
Ce1  1.0  0.1810863561303833  0.34889092071122085  0.8171534139952177  Uiso  ?  Ce
Ce1  1.0  0.18191589893989193  0.34732397278391275  0.7529772062563245  Uiso  ?  Ce
Ce1  1.0  0.19893305608289724  0.3990670396775915  0.7844289385213945  Uiso  ?  Ce
O1  1.0  0.19999794526020642  0.360237019445388  0.7842122645872556  Uiso  ?  O
O1  1.0  0.1812515264321063  0.38859010247881487  0.7560910138616023  Uiso  ?  O
O1  1.0  0.18054797948154142  0.38461346302094074  0.816422844938835  Uiso  ?  O
O1  1.0  0.16437093776671327  0.4135551315292909  0.7853900104491454  Uiso  ?  O
Ce1  1.0  0.1988760294575592  0.3991574145607162  0.8454767563529811  Uiso  ?  Ce
O1  1.0  0.16395336218930895  0.41323721739537117  0.8477058947592018  Uiso  ?  O
Ce1  1.0  0.8347725619352536  0.34693910158886876  0.32080315721407143  Uiso  ?  Ce
Ce1  1.0  0.8330833805227225  0.3445571802171102  0.2572190733065948  Uiso  ?  Ce
O1  1.0  0.8334411909849306  0.3866069478951478  0.256070165565805  Uiso  ?  O
O1  1.0  0.8326876320612343  0.38411112617413756  0.3153786578806513  Uiso  ?  O
O1  1.0  0.8162183821406047  0.40973054346758825  0.2852377527264397  Uiso  ?  O
O1  1.0  0.7952067121217726  0.35956073919943743  0.25601187801587066  Uiso  ?  O
O1  1.0  0.7978911147481198  0.3632725012964627  0.31815173182456885  Uiso  ?  O
O1  1.0  0.7794555438298755  0.38598065510956153  0.28707225383581353  Uiso  ?  O
Ce1  1.0  0.7960266575038797  0.3992478851534958  0.38208342925587424  Uiso  ?  Ce
Ce1  1.0  0.7993358441483774  0.39737187413251823  0.31616470356736187  Uiso  ?  Ce
O1  1.0  0.8150628867126607  0.41245796612667246  0.3507633886324856  Uiso  ?  O
O1  1.0  0.7796103503819993  0.38508233767625527  0.34714063640341203  Uiso  ?  O
O1  1.0  0.7618836962333361  0.41336830690777504  0.31682008013775753  Uiso  ?  O
O1  1.0  0.7579023884967375  0.41223369475560384  0.37730614936330525  Uiso  ?  O
Ce1  1.0  0.7811532457396013  0.3479233716049381  0.28826382188997807  Uiso  ?  Ce
O1  1.0  0.7443718959055272  0.35789954807863006  0.2894774851540832  Uiso  ?  O
Ce1  1.0  0.779286159978086  0.3457970534810527  0.3467279350847735  Uiso  ?  Ce
Ce1  1.0  0.7274473430921122  0.3442980716052883  0.37937286669287007  Uiso  ?  Ce
Ce1  1.0  0.7277712654158476  0.3486039291208598  0.3125947510998249  Uiso  ?  Ce
Ce1  1.0  0.7406563544915058  0.39813681621740443  0.3497936632780939  Uiso  ?  Ce
O1  1.0  0.7423716838446667  0.3592120629991015  0.350214743748843  Uiso  ?  O
O1  1.0  0.7264813608090597  0.38349805882185684  0.3201592741618753  Uiso  ?  O
O1  1.0  0.7247747610081402  0.3882651820153246  0.37959364499706283  Uiso  ?  O
O1  1.0  0.7051916268601806  0.41087303430483024  0.3483925325698542  Uiso  ?  O
O1  1.0  0.6893296335128984  0.3598831652101151  0.316519079183277  Uiso  ?  O
O1  1.0  0.6894219639941944  0.3598984081506368  0.37754773124578733  Uiso  ?  O
O1  1.0  0.6701516874956245  0.38656205645898284  0.3504508480915129  Uiso  ?  O
Ce1  1.0  0.7439155709672858  0.3995768999419932  0.40934564334172147  Uiso  ?  Ce
Ce1  1.0  0.6897590409311684  0.39601090963314417  0.4429691371957487  Uiso  ?  Ce
Ce1  1.0  0.6855516745147561  0.39703304370025827  0.38034035613094347  Uiso  ?  Ce
O1  1.0  0.704804059254619  0.41294587894244217  0.41006732197012374  Uiso  ?  O
O1  1.0  0.6710194062310663  0.3846878761387565  0.4092170085769161  Uiso  ?  O
O1  1.0  0.6533582215788942  0.4115395339245517  0.4422924100914724  Uiso  ?  O
Ce1  1.0  0.6690984829318979  0.3447464019585861  0.34818611418683953  Uiso  ?  Ce
O1  1.0  0.6348185957236288  0.35711686987368424  0.3476706947513293  Uiso  ?  O
Ce1  1.0  0.6713445992532491  0.3479164046616201  0.41025253870768413  Uiso  ?  Ce
Ce1  1.0  0.6165288558190719  0.3470618921476417  0.43875620548430583  Uiso  ?  Ce
Ce1  1.0  0.6173169884195365  0.3490245562891513  0.37869087694805087  Uiso  ?  Ce
Ce1  1.0  0.6342221099640206  0.40042491313318473  0.410880570288009  Uiso  ?  Ce
O1  1.0  0.6323306608662066  0.3616144389038113  0.4097282606722468  Uiso  ?  O
O1  1.0  0.6152641722167953  0.38596675180142664  0.3796340294156905  Uiso  ?  O
O1  1.0  0.6134980355612595  0.38474083855129587  0.44284900493372603  Uiso  ?  O
O1  1.0  0.5796670009340291  0.3627235553845094  0.3810939944455574  Uiso  ?  O
O1  1.0  0.5800045110436878  0.35949022884920784  0.4438205878038323  Uiso  ?  O
O1  1.0  0.5626839190909314  0.38907396552745027  0.4091086723021979  Uiso  ?  O
Ce1  1.0  0.6353195403962784  0.3979290203241972  0.47355373045946375  Uiso  ?  Ce
Ce1  1.0  0.5800002373988269  0.39893414046057063  0.5017091119646537  Uiso  ?  Ce
Ce1  1.0  0.5779745652410659  0.4016419299991549  0.44347752168046434  Uiso  ?  Ce
O1  1.0  0.5963943604604298  0.4094937740404864  0.4700585390393765  Uiso  ?  O
O1  1.0  0.5602058597893  0.38585857785087446  0.47443586285614847  Uiso  ?  O
O1  1.0  0.5470052876992841  0.41009275344690804  0.44289776043179263  Uiso  ?  O
O1  1.0  0.542469288861896  0.41035135680450535  0.5036727803422931  Uiso  ?  O
Ce1  1.0  0.5644496708017245  0.3462893748731773  0.4096602322640343  Uiso  ?  Ce
O1  1.0  0.5265936748041488  0.36032412880034953  0.4102752908378979  Uiso  ?  O
Ce1  1.0  0.5625508375999589  0.3465649183312591  0.47301326703682794  Uiso  ?  Ce
Ce1  1.0  0.506293882255917  0.3476888143664838  0.5063026794262622  Uiso  ?  Ce
Ce1  1.0  0.5079309765222917  0.34926722688574674  0.4400559606269722  Uiso  ?  Ce
Ce1  1.0  0.5241234914745072  0.39982076102956304  0.47448725770435096  Uiso  ?  Ce
O1  1.0  0.5254102884512486  0.3588883896112261  0.47209220260341245  Uiso  ?  O
O1  1.0  0.5072735139307593  0.3848411732066058  0.43947240013796957  Uiso  ?  O
O1  1.0  0.507724216142515  0.3872011508845007  0.5039545012238609  Uiso  ?  O
O1  1.0  0.4710471533124097  0.36013868997993637  0.44283760834639735  Uiso  ?  O
O1  1.0  0.46871945559316996  0.36282230183954745  0.5021969302875733  Uiso  ?  O
O1  1.0  0.4510361659061421  0.38412597502745344  0.4723665130570459  Uiso  ?  O
Ce1  1.0  0.525318287731062  0.4002836735405285  0.5373840722555712  Uiso  ?  Ce
Ce1  1.0  0.47046335576343157  0.40034482188868  0.5662608583094962  Uiso  ?  Ce
Ce1  1.0  0.4712965700986641  0.39944843562356636  0.5070818732296705  Uiso  ?  Ce
O1  1.0  0.4522845278655497  0.3839236352717737  0.5345621120205535  Uiso  ?  O
O1  1.0  0.4332850764948892  0.4110895055401953  0.5650854838268098  Uiso  ?  O
Ce1  1.0  0.45347786953717645  0.34693800847969614  0.4722992635362998  Uiso  ?  Ce
O1  1.0  0.41706049026414455  0.361207838545412  0.47294549344065173  Uiso  ?  O
Ce1  1.0  0.4538741237258506  0.34849290966081564  0.5346913698346175  Uiso  ?  Ce
Ce1  1.0  0.39649125238583915  0.34779631131520994  0.5624272476800534  Uiso  ?  Ce
Ce1  1.0  0.3993656587096221  0.34507519908872547  0.5033101007522726  Uiso  ?  Ce
Ce1  1.0  0.41507645935162873  0.39924101732762307  0.5351302222467846  Uiso  ?  Ce
O1  1.0  0.41687505869624353  0.36451422421232355  0.5336117943434171  Uiso  ?  O
O1  1.0  0.3978256883922448  0.38604360379726094  0.504695615449882  Uiso  ?  O
O1  1.0  0.3993686733184535  0.38753270516844324  0.566011340221322  Uiso  ?  O
O1  1.0  0.38444661553410436  0.41191542169729367  0.5335010458703849  Uiso  ?  O
O1  1.0  0.3636272153588847  0.3574858851597574  0.5069107721631426  Uiso  ?  O
O1  1.0  0.36405281559680275  0.3613375166727838  0.5646363125813765  Uiso  ?  O
O1  1.0  0.3466270016878536  0.3826514023433407  0.535003959714978  Uiso  ?  O
Ce1  1.0  0.41793859291026747  0.40098610772866355  0.599392038923216  Uiso  ?  Ce
Ce1  1.0  0.35858519564433283  0.39915059978513884  0.6269897144589869  Uiso  ?  Ce
Ce1  1.0  0.36339622596693955  0.4004318467465148  0.5678372235511941  Uiso  ?  Ce
O1  1.0  0.38084817310918323  0.4103875622087221  0.5941959009424392  Uiso  ?  O
O1  1.0  0.34447266971283014  0.3882095482010874  0.5982398170472254  Uiso  ?  O
O1  1.0  0.3271764102775025  0.41049494436375955  0.5665112524176218  Uiso  ?  O
O1  1.0  0.32492467206256237  0.4136192198071185  0.6266150812591625  Uiso  ?  O
Ce1  1.0  0.34304505707514127  0.34555102284372863  0.5384089052720272  Uiso  ?  Ce
O1  1.0  0.3081877094008614  0.3595886179435856  0.5345194013283565  Uiso  ?  O
Ce1  1.0  0.34242707360766006  0.34621794100995656  0.5974406567170125  Uiso  ?  Ce
Ce1  1.0  0.2881609416552074  0.34860414172931775  0.6305134893528305  Uiso  ?  Ce
Ce1  1.0  0.2929046961942163  0.34848952650481846  0.5651655946800398  Uiso  ?  Ce
Ce1  1.0  0.3055537295330708  0.39941111200376717  0.5988231847269225  Uiso  ?  Ce
O1  1.0  0.3072927513583233  0.36020603708522425  0.5928432367844515  Uiso  ?  O
O1  1.0  0.2910639061859055  0.3881985770961791  0.564108217235647  Uiso  ?  O
O1  1.0  0.2879593893794525  0.3831584232689449  0.627836322375936  Uiso  ?  O
O1  1.0  0.27311677352697916  0.41419889059799037  0.5958477548689434  Uiso  ?  O
O1  1.0  0.25249242333552313  0.3597005861269179  0.568254288803073  Uiso  ?  O
O1  1.0  0.2542949891130185  0.3628880572260112  0.628269743596022  Uiso  ?  O
O1  1.0  0.23430176535976455  0.3862807434579132  0.5960502386682222  Uiso  ?  O
Ce1  1.0  0.30735716643766425  0.3973158840341172  0.6598994633235693  Uiso  ?  Ce
Ce1  1.0  0.25318085104592675  0.4027792393739311  0.6862901049402218  Uiso  ?  Ce
Ce1  1.0  0.25463216648749387  0.3972383566129279  0.6299024361130997  Uiso  ?  Ce
O1  1.0  0.2703057084709573  0.41150069421292257  0.6601774056302405  Uiso  ?  O
O1  1.0  0.23456284997885085  0.3851525635117094  0.6584450835208849  Uiso  ?  O
O1  1.0  0.21787067432515747  0.4119932344169416  0.6295743580702945  Uiso  ?  O
O1  1.0  0.2149798301470829  0.41246722467102104  0.6886060056531371  Uiso  ?  O
Ce1  1.0  0.23487456307079804  0.34680260042427835  0.5977685639410162  Uiso  ?  Ce
O1  1.0  0.19912703330162193  0.35926948730987424  0.5984170691964507  Uiso  ?  O
Ce1  1.0  0.2382447656210872  0.3439928957177941  0.6590379395335182  Uiso  ?  Ce
Ce1  1.0  0.1795163027286324  0.3481590035516487  0.6899654672275678  Uiso  ?  Ce
Ce1  1.0  0.18247312381194492  0.3452084897307612  0.6271043567330027  Uiso  ?  Ce
Ce1  1.0  0.2008910400294707  0.4001688095970718  0.6594100322994619  Uiso  ?  Ce
O1  1.0  0.19974261119402023  0.36087549058214147  0.6573582233840266  Uiso  ?  O
O1  1.0  0.18071372045518186  0.38589656315195214  0.627938741512163  Uiso  ?  O
O1  1.0  0.18197525698226855  0.3838602281663624  0.6913591501368623  Uiso  ?  O
Ce1  1.0  0.19709888773231116  0.3976526354790281  0.7200748634856433  Uiso  ?  Ce
Ce1  1.0  0.8337340628292332  0.34905541623500685  0.1933897157777324  Uiso  ?  Ce
Ce1  1.0  0.8350469942139869  0.34951043439464063  0.13003099716664882  Uiso  ?  Ce
O1  1.0  0.8326959246097245  0.38299851639177307  0.12691109097403505  Uiso  ?  O
O1  1.0  0.8340307250975987  0.3864686414145275  0.19280667304860677  Uiso  ?  O
O1  1.0  0.8164691697932052  0.41105281382212144  0.1619199068978047  Uiso  ?  O
O1  1.0  0.7973247966090368  0.3620365485386744  0.12814380575235235  Uiso  ?  O
O1  1.0  0.7976425232155514  0.3598419148973075  0.19106886635164005  Uiso  ?  O
O1  1.0  0.7813267118031706  0.38344709017125883  0.1615222482768594  Uiso  ?  O
Ce1  1.0  0.7964892465308803  0.3984263181670803  0.2553827391056915  Uiso  ?  Ce
Ce1  1.0  0.797055059635934  0.3969470685963082  0.19386958724674372  Uiso  ?  Ce
O1  1.0  0.8140889522807356  0.41089356687042594  0.22276573931468693  Uiso  ?  O
O1  1.0  0.7811563958318329  0.38579361748062396  0.2244917239354927  Uiso  ?  O
O1  1.0  0.7623709418239237  0.4090033358386519  0.19159358767137355  Uiso  ?  O
O1  1.0  0.7619983233158814  0.40845225369396354  0.2530334634557016  Uiso  ?  O
Ce1  1.0  0.7820327643595921  0.3458468275610227  0.1605012918175768  Uiso  ?  Ce
O1  1.0  0.7461740714922489  0.35834679109654033  0.1594388790902369  Uiso  ?  O
Ce1  1.0  0.7827000933081899  0.3458267353721475  0.22465221296694368  Uiso  ?  Ce
Ce1  1.0  0.722434622473817  0.34280418249591993  0.2527570282999061  Uiso  ?  Ce
Ce1  1.0  0.7252289322235983  0.34705441352158  0.19345406528658152  Uiso  ?  Ce
Ce1  1.0  0.7440326997310456  0.39742307978736857  0.22181715919549358  Uiso  ?  Ce
O1  1.0  0.741359961073927  0.3616400974700469  0.22419695890085894  Uiso  ?  O
O1  1.0  0.723135190510823  0.3864648050411245  0.19527833952862775  Uiso  ?  O
O1  1.0  0.7256227870589459  0.38564024626459975  0.2571394298876576  Uiso  ?  O
O1  1.0  0.7052845431865147  0.41224096640022995  0.22407686049667724  Uiso  ?  O
O1  1.0  0.6897852569814259  0.3595348201200363  0.19253135297589483  Uiso  ?  O
O1  1.0  0.6887783934903478  0.35983733868205686  0.2533371715680705  Uiso  ?  O
O1  1.0  0.6728676002730583  0.3845643195104041  0.22396151169785525  Uiso  ?  O
Ce1  1.0  0.7466955373286139  0.39704517665925537  0.2845292661347933  Uiso  ?  Ce
Ce1  1.0  0.6857726967544745  0.40102220948685297  0.3167979910238872  Uiso  ?  Ce
Ce1  1.0  0.6879021306807463  0.39932634663701855  0.2545155781867378  Uiso  ?  Ce
O1  1.0  0.7086602948525839  0.4095589263235842  0.28756541188696777  Uiso  ?  O
O1  1.0  0.6726214624859996  0.38438743842829176  0.28480040761125425  Uiso  ?  O
O1  1.0  0.6551477735303218  0.41152931781252566  0.2529657804641029  Uiso  ?  O
O1  1.0  0.6534290908811318  0.412014253881476  0.3165031287192711  Uiso  ?  O
Ce1  1.0  0.668012040155311  0.3486718000431808  0.22363946043335217  Uiso  ?  Ce
O1  1.0  0.634069674938346  0.35987339596452106  0.2219830339388748  Uiso  ?  O
Ce1  1.0  0.6673281832845896  0.3462728764018182  0.2840712021004324  Uiso  ?  Ce
Ce1  1.0  0.6192263489959844  0.3461018790658217  0.3163416430074851  Uiso  ?  Ce
Ce1  1.0  0.6163893249266869  0.3464931297894837  0.2545897607356462  Uiso  ?  Ce
Ce1  1.0  0.6332242915062231  0.40011651007943266  0.2822210571856542  Uiso  ?  Ce
O1  1.0  0.6362307969317597  0.36128190487104705  0.28537234311582305  Uiso  ?  O
O1  1.0  0.6200895861905011  0.38327459037106243  0.25559614833796224  Uiso  ?  O
O1  1.0  0.615682063567558  0.3872424372204183  0.31632715335889044  Uiso  ?  O
O1  1.0  0.595560829242351  0.40957199871965555  0.2846233834876497  Uiso  ?  O
O1  1.0  0.5828028934735021  0.3604561085590442  0.2544442956481698  Uiso  ?  O
O1  1.0  0.5797815159124474  0.35917596686638437  0.3175580420320566  Uiso  ?  O
O1  1.0  0.5618584094100461  0.3855099859384612  0.2832908886917314  Uiso  ?  O
Ce1  1.0  0.6335420181295164  0.39823538978487943  0.35033355999004095  Uiso  ?  Ce
Ce1  1.0  0.5786992870567963  0.4001478971302784  0.378369352618009  Uiso  ?  Ce
Ce1  1.0  0.5794114738954161  0.39916483694686705  0.3139094111757411  Uiso  ?  Ce
O1  1.0  0.5584349722066028  0.38341832817005433  0.34890934569435855  Uiso  ?  O
O1  1.0  0.5445589923031665  0.4102739193052586  0.31592631782316116  Uiso  ?  O
O1  1.0  0.5394297014249319  0.40950104121757996  0.37930335299232437  Uiso  ?  O
Ce1  1.0  0.5676691044608975  0.34673993245657064  0.2818609081474021  Uiso  ?  Ce
O1  1.0  0.5259735623041574  0.36016808668695016  0.28533408595646914  Uiso  ?  O
Ce1  1.0  0.5642113180285016  0.34544180115864287  0.3431961061988983  Uiso  ?  Ce
Ce1  1.0  0.5080669314782923  0.34652865953376777  0.3812333080556244  Uiso  ?  Ce
Ce1  1.0  0.5091250486646787  0.34447177363500625  0.3151837271484588  Uiso  ?  Ce
Ce1  1.0  0.5264315287374969  0.39942559016271606  0.3445366368457293  Uiso  ?  Ce
O1  1.0  0.5270883865983151  0.36035971449050275  0.3473211077138452  Uiso  ?  O
O1  1.0  0.5091756169185292  0.3854010593698094  0.31671485302531477  Uiso  ?  O
O1  1.0  0.5093391641247172  0.3846380178305557  0.37956125699088655  Uiso  ?  O
O1  1.0  0.4712348376890349  0.358984280003919  0.31630340714949073  Uiso  ?  O
O1  1.0  0.4726045944321107  0.36273702820037207  0.3802378816210604  Uiso  ?  O
O1  1.0  0.45251668700018927  0.3839450190870329  0.3495253317810546  Uiso  ?  O
Ce1  1.0  0.5256892374932294  0.4009545192564612  0.4093892273008925  Uiso  ?  Ce
Ce1  1.0  0.4710689884718026  0.40089497755843295  0.4394747571319907  Uiso  ?  Ce
Ce1  1.0  0.4687995756816989  0.3999193203394418  0.37794321498321165  Uiso  ?  Ce
O1  1.0  0.4872127738967841  0.4142144187828525  0.40969168727762423  Uiso  ?  O
O1  1.0  0.4522468017663825  0.38851836786531085  0.4126328994232711  Uiso  ?  O
Ce1  1.0  0.45661274797703566  0.3496281997355842  0.3482208527034074  Uiso  ?  Ce
O1  1.0  0.41707763229777906  0.36031203793669137  0.3460692237953137  Uiso  ?  O
Ce1  1.0  0.45023984204595213  0.34841084391148136  0.4101428782763992  Uiso  ?  Ce
Ce1  1.0  0.3971902199829953  0.3466876929316887  0.4427183047246602  Uiso  ?  Ce
Ce1  1.0  0.4000112806988215  0.34656566117977416  0.37780649063239724  Uiso  ?  Ce
Ce1  1.0  0.41379865725890397  0.40001645714822376  0.4101613121215455  Uiso  ?  Ce
O1  1.0  0.41933592867778735  0.36072114066313654  0.41052904072559876  Uiso  ?  O
O1  1.0  0.400071949180525  0.3837813171824922  0.3791560752751069  Uiso  ?  O
O1  1.0  0.39831855773095276  0.3852775346465379  0.4408766105449891  Uiso  ?  O
O1  1.0  0.38008124636011414  0.4115149837649007  0.4104399000020698  Uiso  ?  O
O1  1.0  0.3622090285463969  0.3563962585219905  0.3799471250433511  Uiso  ?  O
O1  1.0  0.3628570365333902  0.3603365279458398  0.4414349043552009  Uiso  ?  O
O1  1.0  0.3456448596130779  0.38593231612343193  0.4066538594127  Uiso  ?  O
Ce1  1.0  0.41494236440234317  0.3999455112502279  0.47604076576035764  Uiso  ?  Ce
Ce1  1.0  0.36108400844119687  0.3995865383466462  0.502739010345001  Uiso  ?  Ce
Ce1  1.0  0.3630037208946105  0.397794712513753  0.44184393380025405  Uiso  ?  Ce
O1  1.0  0.3827317477551788  0.4128862202482088  0.47088982774242194  Uiso  ?  O
O1  1.0  0.3438006702266742  0.38620088070722053  0.47121943946969225  Uiso  ?  O
O1  1.0  0.3248674766571883  0.40970692119541735  0.4412916710935206  Uiso  ?  O
O1  1.0  0.32619472869569005  0.40946517424301887  0.5002924618050532  Uiso  ?  O
Ce1  1.0  0.3461035974049846  0.3477621430123755  0.4095882027714633  Uiso  ?  Ce
O1  1.0  0.30911994172407536  0.3587357603365306  0.4128753356505823  Uiso  ?  O
Ce1  1.0  0.345118318754458  0.3454693482874841  0.4717923375369348  Uiso  ?  Ce
Ce1  1.0  0.28836844200602707  0.3478128298624847  0.5011300074866943  Uiso  ?  Ce
Ce1  1.0  0.29136928699685843  0.3452063550812677  0.4398037668195393  Uiso  ?  Ce
Ce1  1.0  0.310715142661411  0.39806097720116895  0.47434505537889443  Uiso  ?  Ce
O1  1.0  0.31033508194052845  0.36118853524190114  0.4696125552701847  Uiso  ?  O
O1  1.0  0.29357492247016814  0.3863132740337369  0.4413033772284126  Uiso  ?  O
O1  1.0  0.28823325027492036  0.3852558264668706  0.5009644341755579  Uiso  ?  O
O1  1.0  0.27030894073639006  0.4143133655330096  0.4669901232271863  Uiso  ?  O
O1  1.0  0.2569942213162579  0.36023549135996596  0.44190969422500853  Uiso  ?  O
O1  1.0  0.25147179843035916  0.3595656921431888  0.5030695036147695  Uiso  ?  O
O1  1.0  0.23545822749053377  0.3855034370337187  0.4707485529913612  Uiso  ?  O
Ce1  1.0  0.3088577037787713  0.40019475399216314  0.5336143432417407  Uiso  ?  Ce
Ce1  1.0  0.25391963871266016  0.39966568180757694  0.5665548642668815  Uiso  ?  Ce
Ce1  1.0  0.2540654086857943  0.3977998183250825  0.50101162457297  Uiso  ?  Ce
O1  1.0  0.26944292563434374  0.41213515667196887  0.5354000287729312  Uiso  ?  O
O1  1.0  0.2367424914894393  0.38665141304337947  0.5345380046247075  Uiso  ?  O
O1  1.0  0.21928740548474976  0.409050669631094  0.4990724082355723  Uiso  ?  O
O1  1.0  0.2170141371637378  0.41235073779475434  0.5651842843699627  Uiso  ?  O
Ce1  1.0  0.23258754243771093  0.3451842830678119  0.4711533476869268  Uiso  ?  Ce
O1  1.0  0.2032808723353089  0.36053128412253516  0.47053002966761703  Uiso  ?  O
Ce1  1.0  0.23770765173712127  0.3467830937475991  0.5344876124517944  Uiso  ?  Ce
Ce1  1.0  0.1823737805222719  0.3461635835780055  0.5635175762263688  Uiso  ?  Ce
Ce1  1.0  0.18166015444625588  0.3479415857548178  0.5022499343525573  Uiso  ?  Ce
Ce1  1.0  0.2007148904921721  0.4007126378373924  0.5351721750223858  Uiso  ?  Ce
O1  1.0  0.1987725723612841  0.36038310654697087  0.5345506801596214  Uiso  ?  O
O1  1.0  0.1804213808592557  0.38596767812451094  0.501951853037591  Uiso  ?  O
O1  1.0  0.1821518538266502  0.3853271962859877  0.5639124431334873  Uiso  ?  O
O1  1.0  0.16403470237989526  0.4105343393909363  0.5292615230622102  Uiso  ?  O
Ce1  1.0  0.20197165214929091  0.399721827148523  0.5975893188358535  Uiso  ?  Ce
Ce1  1.0  0.7982579423163827  0.397335985703667  0.13148727417971373  Uiso  ?  Ce
O1  1.0  0.7648319986182125  0.4103625102772265  0.12894167142045207  Uiso  ?  O
Ce1  1.0  0.7267714947627759  0.3466818944818208  0.1289165204711271  Uiso  ?  Ce
O1  1.0  0.7272521015738834  0.3823818653759411  0.12906515238181732  Uiso  ?  O
O1  1.0  0.688689392031061  0.36026806814921014  0.13248134953623922  Uiso  ?  O
Ce1  1.0  0.7433919273679915  0.39922387684959115  0.1569374062500893  Uiso  ?  Ce
Ce1  1.0  0.6903344070026334  0.39883569594449464  0.19151095855517136  Uiso  ?  Ce
Ce1  1.0  0.6901508148599371  0.3993163842363212  0.1281926529346013  Uiso  ?  Ce
O1  1.0  0.7077733026089098  0.4101556076668942  0.16057397095226086  Uiso  ?  O
O1  1.0  0.6711621457417386  0.3833546955852596  0.1598234568768064  Uiso  ?  O
O1  1.0  0.6548937486786954  0.4101231394910371  0.1291105890477373  Uiso  ?  O
O1  1.0  0.6552974864943742  0.4120259449937237  0.1908391168002005  Uiso  ?  O
Ce1  1.0  0.6743390433534143  0.3464028507398811  0.1618294905200126  Uiso  ?  Ce
Ce1  1.0  0.6160689711368603  0.34936397822613324  0.1926667224950084  Uiso  ?  Ce
Ce1  1.0  0.6202566233780505  0.34786791775159354  0.1295985044723313  Uiso  ?  Ce
Ce1  1.0  0.6367130132398288  0.4013577275511475  0.1618555545009975  Uiso  ?  Ce
O1  1.0  0.6349757305537866  0.35947440270874004  0.16141517877948586  Uiso  ?  O
O1  1.0  0.6173747704166732  0.3848138491491268  0.12934615819169565  Uiso  ?  O
O1  1.0  0.6171488120521624  0.38650778307841455  0.19010091263376827  Uiso  ?  O
O1  1.0  0.5946414708687823  0.4094416928473988  0.15757878558678257  Uiso  ?  O
O1  1.0  0.580690905507001  0.362033338913093  0.12809115450969494  Uiso  ?  O
O1  1.0  0.582321528204527  0.3568089733756113  0.193485841598136  Uiso  ?  O
O1  1.0  0.5635686014887836  0.3876625304993136  0.15880449112256625  Uiso  ?  O
Ce1  1.0  0.6338567420500397  0.3973368178019309  0.22489389991982262  Uiso  ?  Ce
Ce1  1.0  0.5818323183127277  0.3974815620514217  0.25486611633812956  Uiso  ?  Ce
Ce1  1.0  0.581068448285265  0.39948483433155785  0.18849879531434063  Uiso  ?  Ce
O1  1.0  0.596248751463188  0.41339118592339447  0.2240441200631112  Uiso  ?  O
O1  1.0  0.5629063361103498  0.38581650685225505  0.22141314966823655  Uiso  ?  O
O1  1.0  0.5470279631050965  0.4122281222736933  0.19005491538815983  Uiso  ?  O
O1  1.0  0.5472407469606606  0.4105250285659988  0.256003950500738  Uiso  ?  O
Ce1  1.0  0.5607728465588678  0.3467902513642463  0.1589476877781308  Uiso  ?  Ce
O1  1.0  0.5268858793973121  0.3592766909616757  0.15796453979927733  Uiso  ?  O
Ce1  1.0  0.560687276143383  0.3479782758492295  0.2228586779443636  Uiso  ?  Ce
Ce1  1.0  0.5082291786567543  0.35026916496903276  0.25101263896915477  Uiso  ?  Ce
Ce1  1.0  0.5105203625080147  0.34585053193443893  0.1886472719045812  Uiso  ?  Ce
Ce1  1.0  0.5265009124560162  0.39801746262833343  0.22145339059469  Uiso  ?  Ce
O1  1.0  0.5253291098826401  0.3590251087668791  0.22197387720248948  Uiso  ?  O
O1  1.0  0.508310238491469  0.3837717335651379  0.19045371020906632  Uiso  ?  O
O1  1.0  0.506605410962651  0.38471646961440414  0.2507153712035987  Uiso  ?  O
O1  1.0  0.49154707438979994  0.40870525824330184  0.22079251463282035  Uiso  ?  O
O1  1.0  0.468429365463256  0.3629114071500171  0.1895516326683771  Uiso  ?  O
O1  1.0  0.4733609956987978  0.3606843911370296  0.25163122468940524  Uiso  ?  O
O1  1.0  0.4517267804991776  0.3858010410107285  0.22350023476696093  Uiso  ?  O
Ce1  1.0  0.53081786085407  0.3996577192663637  0.2883619626967471  Uiso  ?  Ce
Ce1  1.0  0.47058563842865686  0.40156157636698675  0.3151933883013542  Uiso  ?  Ce
Ce1  1.0  0.470727721506958  0.3981440020225448  0.2508065794348432  Uiso  ?  Ce
O1  1.0  0.48992355157883377  0.410941406295748  0.28511694303220286  Uiso  ?  O
O1  1.0  0.4558875898068061  0.3860260865404252  0.2852576933621154  Uiso  ?  O
O1  1.0  0.43736351646746174  0.4109389247188473  0.2498322677437079  Uiso  ?  O
O1  1.0  0.43530312732253945  0.4086732082681444  0.31785655968307064  Uiso  ?  O
Ce1  1.0  0.45443327267857603  0.3500205235604549  0.2218951945297045  Uiso  ?  Ce
O1  1.0  0.4192728451015693  0.357976165861367  0.2204224502595314  Uiso  ?  O
Ce1  1.0  0.45280303064398814  0.34887537604509244  0.2859927029090886  Uiso  ?  Ce
Ce1  1.0  0.40277623848884153  0.3473318376538833  0.3155358949074208  Uiso  ?  Ce
Ce1  1.0  0.39876884459186135  0.3473004666917847  0.24887132758672803  Uiso  ?  Ce
Ce1  1.0  0.4172501594740049  0.3982773712426204  0.28509941218149387  Uiso  ?  Ce
O1  1.0  0.416815240839677  0.3611776331987369  0.2874245315571644  Uiso  ?  O
O1  1.0  0.40318925604876127  0.3868189574269983  0.25344126320920884  Uiso  ?  O
O1  1.0  0.3993298974595066  0.3861651621002471  0.31727050806133783  Uiso  ?  O
O1  1.0  0.3797267374506235  0.4106652933842864  0.2858733788088635  Uiso  ?  O
O1  1.0  0.3628630218212757  0.35888359001035913  0.25330089099498243  Uiso  ?  O
O1  1.0  0.363863791754009  0.35793639664645477  0.3164311434998427  Uiso  ?  O
O1  1.0  0.34396481459437667  0.3844522269791302  0.28355930058264567  Uiso  ?  O
Ce1  1.0  0.4185100421979394  0.3959967014438391  0.3450152687857369  Uiso  ?  Ce
Ce1  1.0  0.36487169480505743  0.3985545394681912  0.379842908297551  Uiso  ?  Ce
Ce1  1.0  0.36399890260424017  0.4004148671855185  0.3130706510138149  Uiso  ?  Ce
O1  1.0  0.37971720894587485  0.40910532759737445  0.3429087183728001  Uiso  ?  O
O1  1.0  0.3436715816063048  0.38665175716450334  0.345309683582176  Uiso  ?  O
O1  1.0  0.3302066527124494  0.4127030404104958  0.3173102462200167  Uiso  ?  O
O1  1.0  0.32837469924236046  0.4122423773531112  0.3782609861987921  Uiso  ?  O
Ce1  1.0  0.34641256583687596  0.3481256574405923  0.2836835185934621  Uiso  ?  Ce
O1  1.0  0.308193591981456  0.36243301522908616  0.28441164351939724  Uiso  ?  O
Ce1  1.0  0.34435079343532254  0.34737131710773855  0.3448145893831173  Uiso  ?  Ce
Ce1  1.0  0.2888887411416354  0.3454440473184695  0.37966703309852723  Uiso  ?  Ce
Ce1  1.0  0.2898771423623101  0.34497050552751257  0.314058381352422  Uiso  ?  Ce
Ce1  1.0  0.31072908072370886  0.40038585004665783  0.34406513505785646  Uiso  ?  Ce
O1  1.0  0.3086466914948253  0.361353002677103  0.34540197738445516  Uiso  ?  O
O1  1.0  0.29122449758118  0.38696321633288217  0.31431676426280747  Uiso  ?  O
O1  1.0  0.29130418875700687  0.38356256696148266  0.377164132967285  Uiso  ?  O
O1  1.0  0.2689789108795371  0.41175843899185416  0.3447070037314455  Uiso  ?  O
O1  1.0  0.2559461703534116  0.3594689705918838  0.31342526898257245  Uiso  ?  O
O1  1.0  0.25335913874546184  0.3568831710326802  0.3780216675802823  Uiso  ?  O
O1  1.0  0.2388747650148732  0.38939434321396293  0.3459149389390807  Uiso  ?  O
Ce1  1.0  0.31160234217505234  0.3993266382565072  0.4090264390215883  Uiso  ?  Ce
Ce1  1.0  0.253228937107567  0.39593948033897547  0.43980025444798376  Uiso  ?  Ce
Ce1  1.0  0.2557108689341628  0.39776917225834346  0.37865527479747285  Uiso  ?  Ce
O1  1.0  0.27209127135134614  0.41086035797361475  0.41295656893353344  Uiso  ?  O
O1  1.0  0.23553277829788152  0.3842586136632357  0.410048551730449  Uiso  ?  O
O1  1.0  0.21945563492912287  0.40890801995593984  0.3794297801056677  Uiso  ?  O
O1  1.0  0.21802253717250802  0.41090576528512074  0.43970153445584287  Uiso  ?  O
Ce1  1.0  0.2348243684770466  0.34853342012324834  0.3451840627913549  Uiso  ?  Ce
O1  1.0  0.20247328537606019  0.3592442575596656  0.3466605035463819  Uiso  ?  O
Ce1  1.0  0.23648432229901287  0.3431187371606435  0.4080492362525394  Uiso  ?  Ce
Ce1  1.0  0.18084612448672194  0.3509289421423787  0.44096139562979014  Uiso  ?  Ce
Ce1  1.0  0.18031601996482788  0.34671505930077867  0.37893323985714933  Uiso  ?  Ce
Ce1  1.0  0.20054446854844454  0.3971943708682517  0.40980665694963625  Uiso  ?  Ce
O1  1.0  0.2009092254539346  0.3626721112800003  0.40815411086745124  Uiso  ?  O
O1  1.0  0.18500915813187804  0.38862979004118037  0.37650077529204157  Uiso  ?  O
O1  1.0  0.17993112765333402  0.3877128098731494  0.4404472017430535  Uiso  ?  O
Ce1  1.0  0.19868926982371593  0.4017406337316771  0.4737986153594226  Uiso  ?  Ce
O1  1.0  0.16515369232604712  0.41366554504328745  0.4729028514108257  Uiso  ?  O
Ce1  1.0  0.5780575627478861  0.3978726548118314  0.13137793531223385  Uiso  ?  Ce
O1  1.0  0.5447049014954157  0.4086728325392673  0.1264807010514371  Uiso  ?  O
Ce1  1.0  0.5087252090634732  0.3482454417782675  0.13015299866851116  Uiso  ?  Ce
O1  1.0  0.5093939350551615  0.3869302835785703  0.12773691210364876  Uiso  ?  O
O1  1.0  0.4702477983843363  0.36017503073838303  0.12541952124688716  Uiso  ?  O
Ce1  1.0  0.5243310341021843  0.39797376880059315  0.1602809143710851  Uiso  ?  Ce
Ce1  1.0  0.4701581736196435  0.3998769124466795  0.19137392622135818  Uiso  ?  Ce
Ce1  1.0  0.47345635296734495  0.39760966221681654  0.12820019288317452  Uiso  ?  Ce
O1  1.0  0.4921521414884886  0.4111030098819961  0.1587041033472442  Uiso  ?  O
O1  1.0  0.456100246995318  0.3857774409087429  0.16080340986137734  Uiso  ?  O
O1  1.0  0.43524191048581096  0.40863049930652007  0.19083089152998559  Uiso  ?  O
Ce1  1.0  0.4558812366227063  0.34525057605096354  0.15908028425777643  Uiso  ?  Ce
Ce1  1.0  0.400182570055101  0.3477466971324186  0.1896325256388842  Uiso  ?  Ce
Ce1  1.0  0.3993378564261101  0.3446436754907326  0.12976262524693288  Uiso  ?  Ce
Ce1  1.0  0.42017405355993004  0.4011170580359547  0.15835870801309765  Uiso  ?  Ce
O1  1.0  0.416428065822832  0.3588353538322725  0.161818399525543  Uiso  ?  O
O1  1.0  0.3986542088510648  0.3839174456607869  0.1275965736788947  Uiso  ?  O
O1  1.0  0.39754018954523035  0.38616521617023847  0.19088519699968418  Uiso  ?  O
O1  1.0  0.3654512801182988  0.36025479491055995  0.12336440874205241  Uiso  ?  O
O1  1.0  0.3629740041962124  0.35997310726477705  0.18912455037490988  Uiso  ?  O
O1  1.0  0.34523972375823875  0.3847663679134465  0.15749114181834087  Uiso  ?  O
Ce1  1.0  0.4176046774067968  0.4011807553847501  0.22233989746369381  Uiso  ?  Ce
Ce1  1.0  0.3642674209297098  0.39986872005010277  0.25479764672009525  Uiso  ?  Ce
Ce1  1.0  0.36621332655478767  0.3983465138679062  0.19196116868487118  Uiso  ?  Ce
O1  1.0  0.3860191950083844  0.41063145274430773  0.22077291157481185  Uiso  ?  O
O1  1.0  0.347458415086119  0.3840492030485493  0.21802068073859734  Uiso  ?  O
O1  1.0  0.32597699735008123  0.4103309841217993  0.2534082368927843  Uiso  ?  O
Ce1  1.0  0.3484984443985028  0.3503783146305177  0.15936889291091863  Uiso  ?  Ce
O1  1.0  0.3093556904984017  0.3592899875136168  0.1582476389067075  Uiso  ?  O
Ce1  1.0  0.3482074429774417  0.3464257896209589  0.22350838744351886  Uiso  ?  Ce
Ce1  1.0  0.29300805990824036  0.34842290502494044  0.25073857360699336  Uiso  ?  Ce
Ce1  1.0  0.29216737828022454  0.345429415594767  0.1898357625635131  Uiso  ?  Ce
Ce1  1.0  0.30989806404500314  0.39761711927781135  0.22161796090954783  Uiso  ?  Ce
O1  1.0  0.3092083955736671  0.3606984902838066  0.21971551321495109  Uiso  ?  O
O1  1.0  0.2952695046556598  0.38722214322258003  0.19261112473077446  Uiso  ?  O
O1  1.0  0.29161865342810933  0.3833044689357623  0.2505391361292569  Uiso  ?  O
O1  1.0  0.2564971228076622  0.3613464645439943  0.18993159123541814  Uiso  ?  O
O1  1.0  0.2583634770786348  0.3624911914776596  0.25178567009208747  Uiso  ?  O
O1  1.0  0.2379105859552023  0.38664158717030517  0.2217000081878506  Uiso  ?  O
Ce1  1.0  0.3082496269929115  0.39692517483678263  0.28443517149711645  Uiso  ?  Ce
Ce1  1.0  0.25662410394245155  0.39809852571189613  0.31413424577860943  Uiso  ?  Ce
Ce1  1.0  0.2548169043531707  0.3978755154500795  0.25045625663983634  Uiso  ?  Ce
O1  1.0  0.2699932742561557  0.4106827205277457  0.28561713760071966  Uiso  ?  O
O1  1.0  0.23645328643418267  0.3891797528885217  0.2822632770716931  Uiso  ?  O
Ce1  1.0  0.233744356685058  0.3460079782099063  0.2214681769140198  Uiso  ?  Ce
O1  1.0  0.199734110752535  0.3651493309281499  0.2208966571831029  Uiso  ?  O
Ce1  1.0  0.23529628511394785  0.3489383287719826  0.28134262073849026  Uiso  ?  Ce
Ce1  1.0  0.18116794717072213  0.3466097858708392  0.3141323738592281  Uiso  ?  Ce
Ce1  1.0  0.18295963041527283  0.34671906287196214  0.25016544542735275  Uiso  ?  Ce
Ce1  1.0  0.20153729903117212  0.3949987206197328  0.28302812815004175  Uiso  ?  Ce
O1  1.0  0.2012909708641783  0.3607226566375796  0.2833700765547289  Uiso  ?  O
O1  1.0  0.18354993354376062  0.3865115752238485  0.2547753339344317  Uiso  ?  O
O1  1.0  0.18590128031069728  0.3841686661512834  0.3160219081132046  Uiso  ?  O
Ce1  1.0  0.20100871170728762  0.40019194330812996  0.34723726778935554  Uiso  ?  Ce
Ce1  1.0  0.29243273282688853  0.34531086789730997  0.12686997951183496  Uiso  ?  Ce
O1  1.0  0.254432183059037  0.3576332189093861  0.12829685226023987  Uiso  ?  O
Ce1  1.0  0.23827817927449513  0.3452763838957565  0.1593853100542768  Uiso  ?  Ce
Ce1  1.0  0.1866553044961273  0.3481214768911713  0.18730637501041691  Uiso  ?  Ce
Ce1  1.0  0.18427714799904069  0.3463125800078532  0.12736954421587995  Uiso  ?  Ce
O1  1.0  0.20259050670539216  0.3580214903011755  0.15777331723539342  Uiso  ?  O
O1  1.0  0.8297283017903608  0.3085668617917947  0.8197842276331931  Uiso  ?  O
O1  1.0  0.8329019555769657  0.30943071104213465  0.8792403607906569  Uiso  ?  O
O1  1.0  0.8132086921422836  0.33394164561446865  0.8490312134393391  Uiso  ?  O
Ce1  1.0  0.8094701088361965  0.29598049362722384  0.8479214525388907  Uiso  ?  Ce
O1  1.0  0.7937286607181703  0.28409530773144526  0.8169955924749902  Uiso  ?  O
O1  1.0  0.7978385955062863  0.2843646120197447  0.8784959096634553  Uiso  ?  O
O1  1.0  0.7739387900177465  0.31075315100548595  0.8509919532657688  Uiso  ?  O
O1  1.0  0.7363047885220039  0.28231066184506703  0.8502895525560322  Uiso  ?  O
Ce1  1.0  0.7606538729882748  0.29575893401714537  0.8773718221766819  Uiso  ?  Ce
O1  1.0  0.7556564407424974  0.33175156702636993  0.8816093537719774  Uiso  ?  O
O1  1.0  0.7225490455631541  0.30941756000456194  0.8819765540634024  Uiso  ?  O
O1  1.0  0.6896739271935352  0.2849255807195758  0.8829798485313054  Uiso  ?  O
O1  1.0  0.8296953209746238  0.3095140417054309  0.6919143521787388  Uiso  ?  O
O1  1.0  0.8308910252484161  0.3077194714341828  0.7572689806965835  Uiso  ?  O
O1  1.0  0.8120650486921821  0.3356703787456941  0.7250087208076927  Uiso  ?  O
O1  1.0  0.813175051836488  0.3366789340248388  0.7850133674246516  Uiso  ?  O
Ce1  1.0  0.8143367145971406  0.2989750719713167  0.7237270223258382  Uiso  ?  Ce
O1  1.0  0.7945124670480617  0.28168192959810395  0.6914886059523835  Uiso  ?  O
O1  1.0  0.7956082668676738  0.28197884492164965  0.7545565909100816  Uiso  ?  O
O1  1.0  0.7766808238024121  0.30992919724376256  0.7255407950581751  Uiso  ?  O
O1  1.0  0.741938825323333  0.2832606360152034  0.7261913414382666  Uiso  ?  O
Ce1  1.0  0.813600707179101  0.29571566896542556  0.7872492214211301  Uiso  ?  Ce
Ce1  1.0  0.7598316268348392  0.29620495141960596  0.8171719420898051  Uiso  ?  Ce
Ce1  1.0  0.7568221712125663  0.29411964756667064  0.7530220376925882  Uiso  ?  Ce
O1  1.0  0.7765024214083142  0.30964529942547186  0.7840023574626614  Uiso  ?  O
O1  1.0  0.7604052934420533  0.33500853039198575  0.7574690373241808  Uiso  ?  O
O1  1.0  0.7578159321599822  0.3363962304989126  0.8182786817590099  Uiso  ?  O
O1  1.0  0.7415017276392167  0.28081062396532985  0.7862836664298111  Uiso  ?  O
O1  1.0  0.7230676235217023  0.3110561774561131  0.7535405645553623  Uiso  ?  O
O1  1.0  0.7255033771623454  0.30755594891971627  0.8166642752900953  Uiso  ?  O
O1  1.0  0.7057965913163119  0.3328817742256659  0.7914561351824879  Uiso  ?  O
O1  1.0  0.7059307396239061  0.33567280575668706  0.8478215026712483  Uiso  ?  O
Ce1  1.0  0.7060171812798715  0.2964098863849561  0.7846520546941168  Uiso  ?  Ce
O1  1.0  0.684228981133726  0.28261439055326737  0.7544509110573345  Uiso  ?  O
O1  1.0  0.6885186482224301  0.2862222819327315  0.8167109756229354  Uiso  ?  O
O1  1.0  0.6690116325816632  0.3115691783680304  0.7848963808846093  Uiso  ?  O
O1  1.0  0.6309722656141379  0.2812268258834765  0.783619958925381  Uiso  ?  O
Ce1  1.0  0.7035083340614491  0.29380825779118114  0.8499769171741342  Uiso  ?  Ce
Ce1  1.0  0.6478394497948522  0.29689824158616396  0.8784726625388403  Uiso  ?  Ce
Ce1  1.0  0.6499344313799871  0.29416695592998177  0.8184832709707575  Uiso  ?  Ce
O1  1.0  0.6681951264315019  0.3079630204377962  0.8500568957607473  Uiso  ?  O
O1  1.0  0.6500732323879442  0.3373008917583521  0.8179431581133574  Uiso  ?  O
O1  1.0  0.6495738803337132  0.3360157506500034  0.8797470349949277  Uiso  ?  O
O1  1.0  0.6328378042348429  0.2863962051715276  0.850490586922974  Uiso  ?  O
O1  1.0  0.6117737698336255  0.308841324339412  0.8171699365837228  Uiso  ?  O
O1  1.0  0.6138875401015156  0.30984430391970913  0.8775328363077064  Uiso  ?  O
O1  1.0  0.5945745207640811  0.3351521650017147  0.8467772942819466  Uiso  ?  O
Ce1  1.0  0.5955265655099123  0.29677213650640505  0.8498461915531332  Uiso  ?  Ce
O1  1.0  0.5808421880684784  0.283854431213336  0.8165538997302276  Uiso  ?  O
O1  1.0  0.5775983641329091  0.2838629557053525  0.8784283888789617  Uiso  ?  O
O1  1.0  0.5596135291394245  0.3094861458779731  0.8481615166197677  Uiso  ?  O
O1  1.0  0.5233394230019276  0.2832597911666772  0.8459933364325186  Uiso  ?  O
Ce1  1.0  0.5425680833025115  0.29770037619168616  0.8799605498457014  Uiso  ?  Ce
O1  1.0  0.5434485519817709  0.3329985996321372  0.8815711114851402  Uiso  ?  O
O1  1.0  0.5041688235435209  0.30737412984612583  0.8819324293718858  Uiso  ?  O
O1  1.0  0.4707198509445008  0.2824547506063403  0.8772310603912024  Uiso  ?  O
O1  1.0  0.8345550253244773  0.3077341366922713  0.5666305309906745  Uiso  ?  O
O1  1.0  0.8340747578397186  0.3092056846432314  0.6290580456507081  Uiso  ?  O
O1  1.0  0.8149210422364941  0.33476389346015234  0.5979735219303046  Uiso  ?  O
O1  1.0  0.8126739429398129  0.3331944698230083  0.663445323271186  Uiso  ?  O
Ce1  1.0  0.8134149830103435  0.296530630684681  0.5999967875656268  Uiso  ?  Ce
O1  1.0  0.7985434226455906  0.282714502319584  0.5661065379879638  Uiso  ?  O
O1  1.0  0.7935718117037287  0.28207547476028466  0.6320802848906578  Uiso  ?  O
O1  1.0  0.7779004934682665  0.3063985034936566  0.5992915860591239  Uiso  ?  O
O1  1.0  0.7399140418880378  0.28302834166049606  0.6026009523132856  Uiso  ?  O
Ce1  1.0  0.8145217583921238  0.2970038187559191  0.6624409656934133  Uiso  ?  Ce
Ce1  1.0  0.7586137544709186  0.29590059475522623  0.694463809058653  Uiso  ?  Ce
Ce1  1.0  0.7582546336127762  0.2962041783324276  0.6307248711732512  Uiso  ?  Ce
O1  1.0  0.7781940687913894  0.3097160343868671  0.6633068024642886  Uiso  ?  O
O1  1.0  0.7603709742822329  0.33385063870703585  0.6298585431931523  Uiso  ?  O
O1  1.0  0.7611701037684729  0.334373009942477  0.6929238635842748  Uiso  ?  O
O1  1.0  0.7391084418880732  0.2803837331452599  0.6589582297877852  Uiso  ?  O
O1  1.0  0.7240394200695474  0.308547802010958  0.6321902435125896  Uiso  ?  O
O1  1.0  0.723464693302222  0.3094356145260862  0.6909890574140147  Uiso  ?  O
O1  1.0  0.7062017594664662  0.3316675205443509  0.6622118215988467  Uiso  ?  O
O1  1.0  0.7071431908874907  0.3361713473898817  0.7227900303874141  Uiso  ?  O
Ce1  1.0  0.7070172283584433  0.30033016997900436  0.6614883796211822  Uiso  ?  Ce
O1  1.0  0.6880042122235955  0.2836485287901597  0.6301233057814614  Uiso  ?  O
O1  1.0  0.6860730548648976  0.2855193887670498  0.6878397161519882  Uiso  ?  O
O1  1.0  0.6659793034225511  0.30539015939153114  0.6638206982669975  Uiso  ?  O
O1  1.0  0.6315159476502854  0.2826415233003743  0.6600734944938731  Uiso  ?  O
Ce1  1.0  0.7036702450638908  0.2929923909491809  0.7226337373011373  Uiso  ?  Ce
Ce1  1.0  0.6509098599218663  0.2951639649862245  0.7541969284407702  Uiso  ?  Ce
Ce1  1.0  0.6480748763512286  0.29705303553498685  0.6936997830933385  Uiso  ?  Ce
O1  1.0  0.670031134735747  0.30792878284888914  0.7240177896296307  Uiso  ?  O
O1  1.0  0.6505873320184341  0.3354204196123719  0.6920771985578293  Uiso  ?  O
O1  1.0  0.6494702975541892  0.33307395721041455  0.7517558096504235  Uiso  ?  O
O1  1.0  0.6345286631010865  0.28314680710592965  0.7240385298354798  Uiso  ?  O
O1  1.0  0.6152991434364105  0.3115774596275217  0.6924176198719398  Uiso  ?  O
O1  1.0  0.615536199935318  0.3078786938111554  0.7517995521985522  Uiso  ?  O
O1  1.0  0.5955189619692812  0.33547097050709096  0.7236084343968159  Uiso  ?  O
O1  1.0  0.5962544404251927  0.3362566890422484  0.7831684179308707  Uiso  ?  O
Ce1  1.0  0.594339593342306  0.29668137931523403  0.7214175744038542  Uiso  ?  Ce
O1  1.0  0.5803595625495849  0.2819383889488674  0.693956844573799  Uiso  ?  O
O1  1.0  0.5809784728810046  0.2812376531059651  0.7525302215394477  Uiso  ?  O
O1  1.0  0.5576322850366088  0.3114360784429434  0.7241792453342152  Uiso  ?  O
O1  1.0  0.5252774444633261  0.28327526313901497  0.724345588428601  Uiso  ?  O
Ce1  1.0  0.5967677188073266  0.2964476566941751  0.7866681310639162  Uiso  ?  Ce
Ce1  1.0  0.5452015515178876  0.2972668476340355  0.8176267505192448  Uiso  ?  Ce
Ce1  1.0  0.5406619314804959  0.29439867614369514  0.7568186235654392  Uiso  ?  Ce
O1  1.0  0.5603196396154709  0.31069547404699605  0.7845205819995845  Uiso  ?  O
O1  1.0  0.5432205891488068  0.33342914343021496  0.7509595570554923  Uiso  ?  O
O1  1.0  0.5401862431201975  0.33310644883732154  0.8184401902102355  Uiso  ?  O
O1  1.0  0.5211208018798703  0.28321181085620933  0.7839003982274646  Uiso  ?  O
O1  1.0  0.5055246770640817  0.3078639580272051  0.751471276946117  Uiso  ?  O
O1  1.0  0.5087832206042854  0.3096279228911292  0.8161981390558795  Uiso  ?  O
O1  1.0  0.4902380770223207  0.3373018285806047  0.7859870843574893  Uiso  ?  O
O1  1.0  0.48859839977315533  0.3361709355517892  0.8478980196526384  Uiso  ?  O
Ce1  1.0  0.4846465033681137  0.2948292379110194  0.783144260437159  Uiso  ?  Ce
O1  1.0  0.4725241760236314  0.2837436559403195  0.7537790694103166  Uiso  ?  O
O1  1.0  0.47198068677886174  0.28292548465111234  0.8176947814345094  Uiso  ?  O
O1  1.0  0.4514271861125126  0.31081611465809306  0.7854638185535262  Uiso  ?  O
O1  1.0  0.4158729747500282  0.2830329718284019  0.7856089712707569  Uiso  ?  O
Ce1  1.0  0.4888533946889892  0.2983739345497388  0.8470838739807117  Uiso  ?  Ce
Ce1  1.0  0.4325152494311778  0.29438775845235354  0.8810429064218491  Uiso  ?  Ce
Ce1  1.0  0.43290898678203993  0.2988507007980073  0.8155421353733703  Uiso  ?  Ce
O1  1.0  0.45274629166048797  0.3082713309888978  0.8504650298897416  Uiso  ?  O
O1  1.0  0.43413304752911824  0.3339131585563555  0.8152629612941855  Uiso  ?  O
O1  1.0  0.4333836842642993  0.3316131783084032  0.8779604409246645  Uiso  ?  O
O1  1.0  0.413474739937955  0.28324953394435753  0.8472128732127182  Uiso  ?  O
O1  1.0  0.3986980135596452  0.31318810880845793  0.8178288712491468  Uiso  ?  O
O1  1.0  0.39754504487267844  0.30694659220204845  0.8769225431472654  Uiso  ?  O
O1  1.0  0.379607516188356  0.33753240313695776  0.8489648863099113  Uiso  ?  O
Ce1  1.0  0.3755097039561563  0.29492475910520766  0.8466480856544777  Uiso  ?  Ce
O1  1.0  0.3632915774522503  0.28664211995540334  0.8173856375119407  Uiso  ?  O
O1  1.0  0.3601411431706753  0.2847357298294394  0.8770566707717817  Uiso  ?  O
O1  1.0  0.3397037624601835  0.3102366901139353  0.847690332776314  Uiso  ?  O
O1  1.0  0.30700498622017697  0.2828676089660863  0.8472023928913  Uiso  ?  O
Ce1  1.0  0.3240225190966856  0.2974232262899527  0.8767576528911356  Uiso  ?  Ce
O1  1.0  0.3250260385933379  0.3365262036806961  0.8785365680942722  Uiso  ?  O
O1  1.0  0.28810877731744133  0.31220013841760785  0.8794963228594925  Uiso  ?  O
O1  1.0  0.25132178503722996  0.28255665126322266  0.8798825633518862  Uiso  ?  O
O1  1.0  0.8315583296314865  0.30870686145246773  0.44010703884760005  Uiso  ?  O
O1  1.0  0.8303328557988193  0.30984821716354877  0.5055496955259904  Uiso  ?  O
O1  1.0  0.8139577048905223  0.33507252579599767  0.47581083434954974  Uiso  ?  O
O1  1.0  0.8167123874862494  0.3337502625901542  0.5357555807370005  Uiso  ?  O
Ce1  1.0  0.8119914036256544  0.2994775146645973  0.47412645825395816  Uiso  ?  Ce
O1  1.0  0.7964805707751565  0.283282174214161  0.44386384803693535  Uiso  ?  O
O1  1.0  0.7963008365464378  0.2834758791768327  0.5044766786883489  Uiso  ?  O
O1  1.0  0.7768829343501802  0.30844152956486665  0.4725976735220291  Uiso  ?  O
O1  1.0  0.7416003955386642  0.2833537455210515  0.4729329296488436  Uiso  ?  O
Ce1  1.0  0.8121698111136243  0.2956639219677327  0.5368912389977507  Uiso  ?  Ce
Ce1  1.0  0.7614982712749657  0.29381431633153027  0.565066930964025  Uiso  ?  Ce
Ce1  1.0  0.7625675043724681  0.2952401223390955  0.5034596013360905  Uiso  ?  Ce
O1  1.0  0.7803369602244316  0.3077264148494299  0.5371727022174803  Uiso  ?  O
O1  1.0  0.7575364047968948  0.33357590753113  0.5027842564404877  Uiso  ?  O
O1  1.0  0.7591878283602598  0.33187239258207246  0.5671257240363279  Uiso  ?  O
O1  1.0  0.7391220469273362  0.283985152541529  0.5338200674616176  Uiso  ?  O
O1  1.0  0.7215190561085433  0.3092976697133977  0.5003297471364206  Uiso  ?  O
O1  1.0  0.7237536579175075  0.3094571431084455  0.5655313117126314  Uiso  ?  O
O1  1.0  0.7063331966548699  0.3374721189989242  0.537401505824436  Uiso  ?  O
O1  1.0  0.7055780165815115  0.3353870712817582  0.6003586249035894  Uiso  ?  O
Ce1  1.0  0.7075333894400765  0.2951114361042377  0.537459856348303  Uiso  ?  Ce
O1  1.0  0.6900743540080954  0.2835576213659559  0.50315773680405  Uiso  ?  O
O1  1.0  0.6845782544013009  0.2839859166420325  0.5666564188205387  Uiso  ?  O
O1  1.0  0.6718254419496179  0.30834202925611554  0.5358933062707556  Uiso  ?  O
O1  1.0  0.6355811182417396  0.2828575883423049  0.5347447725830112  Uiso  ?  O
Ce1  1.0  0.7037163808077525  0.2980299434393481  0.5970032300788413  Uiso  ?  Ce
Ce1  1.0  0.6499073525235726  0.2958719577616662  0.6290878655390837  Uiso  ?  Ce
Ce1  1.0  0.6534981813002695  0.29642267662951466  0.5681622314436305  Uiso  ?  Ce
O1  1.0  0.6735948673112672  0.30838223046340296  0.5975994131848035  Uiso  ?  O
O1  1.0  0.6527270259033169  0.3367454036860276  0.5684592349618562  Uiso  ?  O
O1  1.0  0.6523219382289457  0.33382601459858324  0.6320163116689761  Uiso  ?  O
O1  1.0  0.6338777366818559  0.2834972105745746  0.6004136938249858  Uiso  ?  O
O1  1.0  0.6177357495614384  0.3105879253622025  0.5665998212242676  Uiso  ?  O
O1  1.0  0.6162974571856451  0.3075919327193154  0.6293027760002042  Uiso  ?  O
O1  1.0  0.5977411082292811  0.33336294901978303  0.5961813110151203  Uiso  ?  O
O1  1.0  0.5984195255347263  0.3333617874311726  0.6625409319222278  Uiso  ?  O
Ce1  1.0  0.5968669429157382  0.2927108665273829  0.6012284138221196  Uiso  ?  Ce
O1  1.0  0.579925178849662  0.2801674292349062  0.5688844505578606  Uiso  ?  O
O1  1.0  0.5797481897443212  0.2840097543059232  0.6301749070311262  Uiso  ?  O
O1  1.0  0.5599318373251774  0.30772940899516127  0.5999765229543419  Uiso  ?  O
O1  1.0  0.5214810199675055  0.2842885094400761  0.5976774905492773  Uiso  ?  O
Ce1  1.0  0.6005329046280163  0.2957217392859264  0.6611741918444781  Uiso  ?  Ce
Ce1  1.0  0.5412772116971406  0.2952079779211955  0.6925000829149105  Uiso  ?  Ce
Ce1  1.0  0.5427444907875743  0.29780525464846214  0.6293843971524961  Uiso  ?  Ce
O1  1.0  0.5610857289556822  0.30717118849052427  0.6606633322690374  Uiso  ?  O
O1  1.0  0.5461580229231486  0.3329705467316135  0.6275353388916192  Uiso  ?  O
O1  1.0  0.5418508978014058  0.33401988252778175  0.6904820996450426  Uiso  ?  O
O1  1.0  0.5240738147516718  0.28504010449278516  0.6635463242115952  Uiso  ?  O
O1  1.0  0.5062881259043305  0.3095890479507788  0.6282634225555226  Uiso  ?  O
O1  1.0  0.5076310265115804  0.30951288315765313  0.6912090181869432  Uiso  ?  O
O1  1.0  0.4863682077027567  0.3340889800662549  0.6600365913381285  Uiso  ?  O
O1  1.0  0.49068749241696824  0.33293348706514825  0.7247018744894214  Uiso  ?  O
Ce1  1.0  0.48941952847270637  0.29751482203209106  0.6617415218675654  Uiso  ?  Ce
O1  1.0  0.47090888961106875  0.2846969152372142  0.6294411068587409  Uiso  ?  O
O1  1.0  0.4730769341935473  0.28398307678413787  0.6915397601006746  Uiso  ?  O
O1  1.0  0.45255010433536325  0.3097231238020149  0.6588673379191535  Uiso  ?  O
O1  1.0  0.4135563579678933  0.2826555935640641  0.657969375390349  Uiso  ?  O
Ce1  1.0  0.48739220861262006  0.29753591492575726  0.7233320740226049  Uiso  ?  Ce
Ce1  1.0  0.4361896675625405  0.29587732700042013  0.7567519156536813  Uiso  ?  Ce
Ce1  1.0  0.4352619851048157  0.295822480973639  0.6910380842533792  Uiso  ?  Ce
O1  1.0  0.4553058315261067  0.3086860533991578  0.7205917929408532  Uiso  ?  O
O1  1.0  0.43179100224471845  0.33376784063839127  0.6928962863600361  Uiso  ?  O
O1  1.0  0.4367803596590906  0.33519283227306296  0.7525279372864736  Uiso  ?  O
O1  1.0  0.4146997628200025  0.2814095481020795  0.7195623703745394  Uiso  ?  O
O1  1.0  0.3970854443534081  0.3107039190405376  0.6922023977693462  Uiso  ?  O
O1  1.0  0.39585201061840697  0.31083352368476075  0.7539100574632922  Uiso  ?  O
O1  1.0  0.38156246408623795  0.3332667499496828  0.7210956002386697  Uiso  ?  O
O1  1.0  0.3822300888822023  0.3339017293623635  0.786075851726226  Uiso  ?  O
Ce1  1.0  0.38342723891416974  0.2976502326873131  0.7230294035579282  Uiso  ?  Ce
O1  1.0  0.3606800807016604  0.28567018245728487  0.693232356177981  Uiso  ?  O
O1  1.0  0.3616373535826614  0.2830277590169443  0.754782927256159  Uiso  ?  O
O1  1.0  0.34120947633998433  0.3099886002100821  0.7225047968428261  Uiso  ?  O
O1  1.0  0.3058961848791536  0.2831338667324504  0.7219378873984363  Uiso  ?  O
Ce1  1.0  0.37880712110508324  0.29712506242190767  0.7857255908658989  Uiso  ?  Ce
Ce1  1.0  0.3239024573026233  0.2952144421625156  0.8135899663179362  Uiso  ?  Ce
Ce1  1.0  0.3265598383029273  0.2949789290697577  0.7540864654543146  Uiso  ?  Ce
O1  1.0  0.3443127105102724  0.307868857330825  0.7855453387100595  Uiso  ?  O
O1  1.0  0.32592610248913084  0.3344416774740831  0.7511027016070428  Uiso  ?  O
O1  1.0  0.3260224187723443  0.33205539802674183  0.8176720134731419  Uiso  ?  O
O1  1.0  0.3027921358582627  0.2848647980446535  0.7831508878276605  Uiso  ?  O
O1  1.0  0.2887925916643064  0.3107389369845108  0.7531018037325837  Uiso  ?  O
O1  1.0  0.2883499982693516  0.3083729863760419  0.8160906164199493  Uiso  ?  O
O1  1.0  0.2722469259766487  0.3346524968462858  0.7850088876480582  Uiso  ?  O
O1  1.0  0.27381018399942986  0.33628252923920876  0.8480849533475829  Uiso  ?  O
Ce1  1.0  0.274898846022217  0.29807639850908196  0.7834928500942719  Uiso  ?  Ce
O1  1.0  0.2541685937365893  0.28547475833001007  0.7554382293840574  Uiso  ?  O
O1  1.0  0.2502968402336636  0.28536680368638023  0.81633995558762  Uiso  ?  O
O1  1.0  0.23572722905528803  0.30867368324848315  0.7854284735260781  Uiso  ?  O
O1  1.0  0.19955040367938684  0.27981218567833577  0.7860604430971642  Uiso  ?  O
Ce1  1.0  0.27143342287119054  0.294674104231198  0.8468585620700124  Uiso  ?  Ce
Ce1  1.0  0.21528943711287685  0.29593877727037415  0.8789490475644208  Uiso  ?  Ce
Ce1  1.0  0.21687813697431985  0.29541315550212766  0.8166647655312405  Uiso  ?  Ce
O1  1.0  0.23979978791909226  0.30962781683872276  0.8447403653913305  Uiso  ?  O
O1  1.0  0.21607972983183382  0.33473308712425065  0.8155515108713617  Uiso  ?  O
O1  1.0  0.21593888736237077  0.3344433460266133  0.875590049213952  Uiso  ?  O
O1  1.0  0.19629634558150458  0.2806512103136486  0.8504742566116605  Uiso  ?  O
O1  1.0  0.17837854803672726  0.3106694522758597  0.8161177672963864  Uiso  ?  O
O1  1.0  0.17770792341944122  0.3088151086179255  0.8808631766019315  Uiso  ?  O
Ce1  1.0  0.16369721886144017  0.29472726957987017  0.8500687820952103  Uiso  ?  Ce
O1  1.0  0.8332169142964876  0.31122837632859723  0.31658301965418034  Uiso  ?  O
O1  1.0  0.8345254453526244  0.30836026363613145  0.37978255329729427  Uiso  ?  O
O1  1.0  0.8130577829061197  0.33457515144265343  0.3485238589198156  Uiso  ?  O
O1  1.0  0.8160673188956011  0.3324902043687894  0.4117140857981768  Uiso  ?  O
Ce1  1.0  0.8149768903721927  0.29416508631151456  0.3470163669205758  Uiso  ?  Ce
O1  1.0  0.7952368969016433  0.2834900691640002  0.3192292500418993  Uiso  ?  O
O1  1.0  0.7956190133985104  0.2832100239127389  0.3788572361918162  Uiso  ?  O
O1  1.0  0.7772115800636646  0.30869001867575685  0.34885474632396  Uiso  ?  O
O1  1.0  0.7415623216355032  0.2873941904642292  0.3468657649036407  Uiso  ?  O
Ce1  1.0  0.8140771795843692  0.29434531400235814  0.4119563564790932  Uiso  ?  Ce
Ce1  1.0  0.762587971596305  0.2981092936360824  0.44084875701854886  Uiso  ?  Ce
Ce1  1.0  0.7604484049424863  0.2945618053341812  0.38216535309003286  Uiso  ?  Ce
O1  1.0  0.7787779065623349  0.3086859655642871  0.4109265877200928  Uiso  ?  O
O1  1.0  0.763695393707777  0.33577715888476517  0.3798577224984985  Uiso  ?  O
O1  1.0  0.76423674408643  0.3343535656619125  0.44268185208431643  Uiso  ?  O
O1  1.0  0.7426234828221057  0.2816786350501878  0.4129791807414515  Uiso  ?  O
O1  1.0  0.7239497559810794  0.3063912768017534  0.3764954018872824  Uiso  ?  O
O1  1.0  0.7257850654446555  0.3105277269869093  0.4438326189073144  Uiso  ?  O
O1  1.0  0.7080040789057694  0.33291727170341034  0.41474251200328605  Uiso  ?  O
O1  1.0  0.702025086920303  0.33409970544678896  0.47344409963639744  Uiso  ?  O
Ce1  1.0  0.707077432833548  0.29388104389951014  0.41300825438414784  Uiso  ?  Ce
O1  1.0  0.6855904635618101  0.2825692539541588  0.3813930416545986  Uiso  ?  O
O1  1.0  0.6883257578475045  0.28344528791385726  0.44038331987377966  Uiso  ?  O
O1  1.0  0.6684359022822378  0.30753495429025657  0.4103651989969498  Uiso  ?  O
O1  1.0  0.6337290620965205  0.2842408528795054  0.41317081595842553  Uiso  ?  O
Ce1  1.0  0.7060120312513642  0.298681329738741  0.4757900475881853  Uiso  ?  Ce
Ce1  1.0  0.6531168856164268  0.2946525741648199  0.5048145269860677  Uiso  ?  Ce
Ce1  1.0  0.6495862493709722  0.2958550599942797  0.44006042204481716  Uiso  ?  Ce
O1  1.0  0.672378026725411  0.3070888246523267  0.4754970715150173  Uiso  ?  O
O1  1.0  0.6510879730767645  0.3356891823247352  0.44302995246551596  Uiso  ?  O
O1  1.0  0.6534020890343875  0.33391041928841336  0.5035229849654833  Uiso  ?  O
O1  1.0  0.6348981701719466  0.2816500390152434  0.47420373983738356  Uiso  ?  O
O1  1.0  0.6167029098789073  0.3095412402347409  0.4436623280733307  Uiso  ?  O
O1  1.0  0.6165619730329942  0.3082022818364619  0.5023233165961469  Uiso  ?  O
O1  1.0  0.5978857034235384  0.33367732521540067  0.47564968992294615  Uiso  ?  O
O1  1.0  0.5962614292687315  0.3364302376823641  0.5346010123401241  Uiso  ?  O
Ce1  1.0  0.5968962026470511  0.298568223157339  0.4705745687229323  Uiso  ?  Ce
O1  1.0  0.5782093380957563  0.28362144796829897  0.44443784208117987  Uiso  ?  O
O1  1.0  0.5795532208022499  0.2836747104893344  0.5041222702889147  Uiso  ?  O
O1  1.0  0.5621865411777702  0.3105592839974355  0.4731657699041426  Uiso  ?  O
O1  1.0  0.5265749194270065  0.2844245578227909  0.47390673968643593  Uiso  ?  O
Ce1  1.0  0.5979901870924523  0.2973484860586894  0.5335166915468411  Uiso  ?  Ce
Ce1  1.0  0.5393531615021843  0.2981543776892503  0.5670339625746555  Uiso  ?  Ce
Ce1  1.0  0.5404265391730808  0.2963349947445165  0.5013707585800905  Uiso  ?  Ce
O1  1.0  0.5592164019739252  0.30916801385376064  0.5351379109862111  Uiso  ?  O
O1  1.0  0.5458944967037099  0.3357481486153872  0.5021809206739357  Uiso  ?  O
O1  1.0  0.5426824895552762  0.33557065329900915  0.5677065200398861  Uiso  ?  O
O1  1.0  0.5257729409299512  0.28200740173547406  0.537339601113307  Uiso  ?  O
O1  1.0  0.5086817977064468  0.3129499517507277  0.5050288728593816  Uiso  ?  O
O1  1.0  0.5057252435783612  0.3098052364290507  0.5664180771725857  Uiso  ?  O
O1  1.0  0.4858339058297826  0.3352927642297172  0.5338393918060655  Uiso  ?  O
O1  1.0  0.4869215735260215  0.33147205554613374  0.5966685916773893  Uiso  ?  O
Ce1  1.0  0.4905806539608312  0.29563014046604474  0.5356945219109931  Uiso  ?  Ce
O1  1.0  0.47204929350800456  0.2834735396540686  0.5016545499733086  Uiso  ?  O
O1  1.0  0.4666558025112423  0.2834900151046132  0.5672469111672772  Uiso  ?  O
O1  1.0  0.4509742240965379  0.3050364435270843  0.534592008242062  Uiso  ?  O
O1  1.0  0.4170193000023926  0.28535849021454895  0.5380839212517304  Uiso  ?  O
Ce1  1.0  0.48771786553202867  0.29529441877952767  0.5976408965984579  Uiso  ?  Ce
Ce1  1.0  0.43412840320777557  0.2968297697153763  0.6261991262264773  Uiso  ?  Ce
Ce1  1.0  0.43312978090790333  0.2967349802668928  0.5640579794690792  Uiso  ?  Ce
O1  1.0  0.4547998615162485  0.30803533493386265  0.5965268901872506  Uiso  ?  O
O1  1.0  0.43682739984794106  0.33442061066906836  0.5663262353377042  Uiso  ?  O
O1  1.0  0.43517776413208487  0.3363745589688949  0.6279921546412622  Uiso  ?  O
O1  1.0  0.4176746037835668  0.2845222672443912  0.5988625875144756  Uiso  ?  O
O1  1.0  0.39815767568014515  0.3079123182900471  0.5660461217576419  Uiso  ?  O
O1  1.0  0.39558206008741587  0.312135946537878  0.6272408759349919  Uiso  ?  O
O1  1.0  0.3810096298953513  0.3349476690252777  0.5972423846297417  Uiso  ?  O
O1  1.0  0.3791017730319528  0.33565102100484734  0.6589661352550185  Uiso  ?  O
Ce1  1.0  0.38029750330549766  0.2967479403183616  0.5954244869048158  Uiso  ?  Ce
O1  1.0  0.3644550243655476  0.286412504601617  0.565057514237538  Uiso  ?  O
O1  1.0  0.36137730701401993  0.28450754580973187  0.6273952622975272  Uiso  ?  O
O1  1.0  0.3454628556577843  0.31020365384310566  0.5946538152740728  Uiso  ?  O
O1  1.0  0.30801401190878014  0.2826701269137492  0.596951511649335  Uiso  ?  O
Ce1  1.0  0.3800388428899924  0.295042398099131  0.6606651783945482  Uiso  ?  Ce
Ce1  1.0  0.3276532394831278  0.29460862516936415  0.6888091858418297  Uiso  ?  Ce
Ce1  1.0  0.32670598111958066  0.2962480868392177  0.6253823410402526  Uiso  ?  Ce
O1  1.0  0.3454029977098998  0.3088506963186676  0.6601935681152479  Uiso  ?  O
O1  1.0  0.3255306962703307  0.3355992833915743  0.6268190272307779  Uiso  ?  O
O1  1.0  0.3256269334747039  0.33374385368034987  0.6924479074731923  Uiso  ?  O
O1  1.0  0.30671016533602696  0.28076882613889426  0.6600887180000277  Uiso  ?  O
O1  1.0  0.29177784913667104  0.3076143059233707  0.6282252909573715  Uiso  ?  O
O1  1.0  0.2888693557451537  0.30699946943189493  0.6929913412552869  Uiso  ?  O
O1  1.0  0.2706702551989596  0.3341955705213182  0.656423704733768  Uiso  ?  O
O1  1.0  0.2698327876090548  0.338055493363496  0.7227028470940954  Uiso  ?  O
Ce1  1.0  0.2710530066006288  0.296397393661701  0.6604919440268318  Uiso  ?  Ce
O1  1.0  0.2543740452768809  0.2857996327027516  0.631025285690794  Uiso  ?  O
O1  1.0  0.2557308142128525  0.28780285726265337  0.6868920720623387  Uiso  ?  O
O1  1.0  0.23729774109872864  0.30965865106859236  0.6613823709790573  Uiso  ?  O
O1  1.0  0.19759568331108399  0.2850824833781298  0.6599397314941944  Uiso  ?  O
Ce1  1.0  0.2709336863476657  0.2928784932592059  0.721713784713964  Uiso  ?  Ce
Ce1  1.0  0.21676741698322424  0.2970995037640846  0.754790648334342  Uiso  ?  Ce
Ce1  1.0  0.21741249986874864  0.29458926496375265  0.6910584660969098  Uiso  ?  Ce
O1  1.0  0.23354853787622767  0.30820051244154084  0.721237376606228  Uiso  ?  O
O1  1.0  0.21899433272443997  0.3333873516594144  0.6892992405140688  Uiso  ?  O
O1  1.0  0.21746907054117048  0.33580102432254  0.7521528172815158  Uiso  ?  O
O1  1.0  0.1938594535151813  0.2846978425468247  0.7217998182800953  Uiso  ?  O
O1  1.0  0.18198488749829608  0.30900492196673685  0.6897610734273147  Uiso  ?  O
O1  1.0  0.1790204113840324  0.3075627242616869  0.7530232475100191  Uiso  ?  O
O1  1.0  0.1651410377911856  0.33620197327107626  0.7196251927235989  Uiso  ?  O
O1  1.0  0.8343425582910637  0.3060490914859646  0.19162213461764685  Uiso  ?  O
O1  1.0  0.8324445641798708  0.3120863263940585  0.2512329845193255  Uiso  ?  O
O1  1.0  0.8139334074394217  0.33662713366362607  0.22290134167224074  Uiso  ?  O
O1  1.0  0.8150325997584851  0.33639162170683795  0.2884211679569083  Uiso  ?  O
Ce1  1.0  0.8128083407434767  0.29835191659544974  0.22313578700892145  Uiso  ?  Ce
O1  1.0  0.7995381577905691  0.2827625292615616  0.19378358169369525  Uiso  ?  O
O1  1.0  0.796448247869943  0.28452977832446985  0.2542250678066645  Uiso  ?  O
O1  1.0  0.7804546087732442  0.30847296490185067  0.22456547930354542  Uiso  ?  O
O1  1.0  0.7425485650821377  0.28348684551074255  0.22008424015468517  Uiso  ?  O
Ce1  1.0  0.8149920216513102  0.2994455342166052  0.28340383441290945  Uiso  ?  Ce
Ce1  1.0  0.7606445492277445  0.297569639276127  0.3159479379234713  Uiso  ?  Ce
Ce1  1.0  0.7597323569156565  0.29599949008017645  0.2562902355862504  Uiso  ?  Ce
O1  1.0  0.7812480604437798  0.3077258828644592  0.28333177369922696  Uiso  ?  O
O1  1.0  0.7627045919145284  0.33510763965297535  0.25503298494039595  Uiso  ?  O
O1  1.0  0.7630473956039584  0.3360593861023837  0.31863582381901123  Uiso  ?  O
O1  1.0  0.741041904963954  0.28189346512071123  0.28733020891916816  Uiso  ?  O
O1  1.0  0.7261064838554204  0.30799969128452215  0.25632812568509483  Uiso  ?  O
O1  1.0  0.7233000736373649  0.3118668266432047  0.3158641092576957  Uiso  ?  O
O1  1.0  0.7099693008117623  0.33191322040345905  0.2880636067702948  Uiso  ?  O
O1  1.0  0.7063229667716505  0.33552683502038666  0.3508860507147988  Uiso  ?  O
Ce1  1.0  0.7087350583452305  0.2949808262503133  0.28656883695531415  Uiso  ?  Ce
O1  1.0  0.6860397866380269  0.28523510366815447  0.25322880716347385  Uiso  ?  O
O1  1.0  0.687932021154037  0.2826293634875661  0.31439679096189516  Uiso  ?  O
O1  1.0  0.6695198936077492  0.30987818953327756  0.2859889771640543  Uiso  ?  O
O1  1.0  0.6340997570391225  0.28207980182364795  0.2836979867536723  Uiso  ?  O
Ce1  1.0  0.7062450196430745  0.29703173657313536  0.3477347589331308  Uiso  ?  Ce
Ce1  1.0  0.6548199449218066  0.29736966271825566  0.3819371900027144  Uiso  ?  Ce
Ce1  1.0  0.6511799817565519  0.2969526105281486  0.31533806535102027  Uiso  ?  Ce
O1  1.0  0.6724525974479252  0.30933029919957733  0.34878610646979374  Uiso  ?  O
O1  1.0  0.653283473903477  0.3356258127756161  0.3169296058505538  Uiso  ?  O
O1  1.0  0.6532757270055556  0.3337177373274241  0.38025578745103294  Uiso  ?  O
O1  1.0  0.6345591662702499  0.2847130588760429  0.3483132010390929  Uiso  ?  O
O1  1.0  0.6142513095821547  0.30912285873016865  0.3160342327074753  Uiso  ?  O
O1  1.0  0.6133881854567397  0.310386195939264  0.3780283258143975  Uiso  ?  O
O1  1.0  0.5975386362231377  0.3338458401601162  0.3474027089858739  Uiso  ?  O
O1  1.0  0.5989375123237817  0.33294294182470946  0.41360263576553585  Uiso  ?  O
Ce1  1.0  0.601923908964292  0.29495256174150025  0.3483965790755649  Uiso  ?  Ce
O1  1.0  0.5801353900301129  0.2831255512023268  0.31701751278466866  Uiso  ?  O
O1  1.0  0.5807089826616132  0.2829720886102823  0.3775422626042252  Uiso  ?  O
O1  1.0  0.5616996581000808  0.3109259936984035  0.3482633481411637  Uiso  ?  O
O1  1.0  0.525544973362845  0.28552227836525423  0.34462049083995155  Uiso  ?  O
Ce1  1.0  0.5965771808859177  0.2958032037749831  0.41123713915004817  Uiso  ?  Ce
Ce1  1.0  0.5410327710256754  0.2944058369722855  0.4421174693823302  Uiso  ?  Ce
Ce1  1.0  0.5428402143367441  0.29527567379000286  0.37764687351906673  Uiso  ?  Ce
O1  1.0  0.5623191178534669  0.30756912833418315  0.4104280164774896  Uiso  ?  O
O1  1.0  0.5443028393804142  0.33461910431258246  0.3786940353419369  Uiso  ?  O
O1  1.0  0.5431820929361051  0.334994805645561  0.4392468892458364  Uiso  ?  O
O1  1.0  0.5233927103231353  0.28259189083440517  0.4140028313652683  Uiso  ?  O
O1  1.0  0.5067728369532091  0.3070769202833747  0.37989194235860074  Uiso  ?  O
O1  1.0  0.5100765464520541  0.30698280042911325  0.4408448454709468  Uiso  ?  O
O1  1.0  0.49008466228074515  0.3347829729071035  0.40950442099975976  Uiso  ?  O
O1  1.0  0.48907772977552716  0.33232942770995394  0.46940173884712627  Uiso  ?  O
Ce1  1.0  0.4886819401285583  0.29590221091446073  0.41021304776975004  Uiso  ?  Ce
O1  1.0  0.4723919406503236  0.2797002779662646  0.38018376129250303  Uiso  ?  O
O1  1.0  0.4713954459440115  0.28143452092673804  0.44266076224182355  Uiso  ?  O
O1  1.0  0.4523205389671681  0.30685310396423277  0.40852065402122034  Uiso  ?  O
O1  1.0  0.4173032785257222  0.2828320936934155  0.41121743020428936  Uiso  ?  O
Ce1  1.0  0.4879320273050795  0.2972501960613189  0.47238764835116703  Uiso  ?  Ce
Ce1  1.0  0.43556560552907486  0.29496065581829406  0.5030354230736659  Uiso  ?  Ce
Ce1  1.0  0.4387262784403936  0.2947203168534718  0.437373435315744  Uiso  ?  Ce
O1  1.0  0.45277938502359594  0.30635039285165666  0.4745630298475647  Uiso  ?  O
O1  1.0  0.43289636964883027  0.3371753287687136  0.4404870213536614  Uiso  ?  O
O1  1.0  0.43729917286504255  0.33234637252181753  0.49938311263910123  Uiso  ?  O
O1  1.0  0.414091211585962  0.28329881791339745  0.4724711273684543  Uiso  ?  O
O1  1.0  0.3987419849212192  0.3112130271486679  0.43989937123622036  Uiso  ?  O
O1  1.0  0.39863675993614134  0.3065175055330195  0.5033148181585105  Uiso  ?  O
O1  1.0  0.3807740870349203  0.33371660029667194  0.4718239294878567  Uiso  ?  O
O1  1.0  0.3821961079040309  0.3364607899501186  0.5357543536730194  Uiso  ?  O
Ce1  1.0  0.37820680047793065  0.29548911583300824  0.4708858909712062  Uiso  ?  Ce
O1  1.0  0.3656336316192817  0.28524222557835943  0.43983930001636934  Uiso  ?  O
O1  1.0  0.36069969774034893  0.2832476663396592  0.5044926563949632  Uiso  ?  O
O1  1.0  0.34273194534966994  0.3087497630983657  0.47210670502261365  Uiso  ?  O
O1  1.0  0.3067462387765555  0.28616685745762516  0.4746899467810055  Uiso  ?  O
Ce1  1.0  0.38130586801590927  0.29667468820676907  0.5337180381284945  Uiso  ?  Ce
Ce1  1.0  0.3245237225775217  0.29327159049077794  0.5670215856289694  Uiso  ?  Ce
Ce1  1.0  0.3271636897917254  0.2975198031980255  0.501046108535711  Uiso  ?  Ce
O1  1.0  0.3481734807817066  0.30840697274409296  0.5332683231742863  Uiso  ?  O
O1  1.0  0.32454724500466625  0.3333045238168679  0.502184351827067  Uiso  ?  O
O1  1.0  0.3265207246923764  0.33808711563011096  0.5643577881204915  Uiso  ?  O
O1  1.0  0.30785088458399423  0.2855095312039008  0.5320501406731475  Uiso  ?  O
O1  1.0  0.28827043034630245  0.308613509614887  0.5045414320865705  Uiso  ?  O
O1  1.0  0.2910354356528834  0.30699551755568116  0.5658898832936357  Uiso  ?  O
O1  1.0  0.2737098806514694  0.33423723014239515  0.533613230838559  Uiso  ?  O
O1  1.0  0.27429560699991057  0.33676632657077105  0.5959901170637193  Uiso  ?  O
Ce1  1.0  0.2745927552381354  0.29894166260413035  0.5340914729274019  Uiso  ?  Ce
O1  1.0  0.2562698703977225  0.28439597014666035  0.5006769409173825  Uiso  ?  O
O1  1.0  0.2542997591267786  0.28147803379270714  0.5626673759639229  Uiso  ?  O
O1  1.0  0.23416405200514337  0.3096401146424841  0.5350544047563767  Uiso  ?  O
O1  1.0  0.19945115936408692  0.2864729684745415  0.5351668047105999  Uiso  ?  O
Ce1  1.0  0.27283581256204276  0.2990013424305161  0.5989934221436364  Uiso  ?  Ce
Ce1  1.0  0.21798239853417706  0.297535093668226  0.6270203667447705  Uiso  ?  Ce
Ce1  1.0  0.21861703815600342  0.29455011809719933  0.5648094506271703  Uiso  ?  Ce
O1  1.0  0.23623055577426494  0.3082517473652141  0.5939238584559082  Uiso  ?  O
O1  1.0  0.2194501886298561  0.3339095691771034  0.5659317441062182  Uiso  ?  O
O1  1.0  0.21658774941107348  0.3366125334924421  0.626784430809867  Uiso  ?  O
O1  1.0  0.19803419763192795  0.28343674559946014  0.5946064422398772  Uiso  ?  O
O1  1.0  0.18626040265970972  0.30867524233389454  0.5638717321895905  Uiso  ?  O
O1  1.0  0.18442829183268736  0.3110044486964887  0.623555280640989  Uiso  ?  O
O1  1.0  0.1652401869809957  0.33633798521918623  0.6582431644253307  Uiso  ?  O
Ce1  1.0  0.16367024848681846  0.29794080621913144  0.5940977491679744  Uiso  ?  Ce
O1  1.0  0.8337782000023951  0.309028819016282  0.12883917768875391  Uiso  ?  O
O1  1.0  0.8143263244402797  0.3341745053851972  0.16120236827911544  Uiso  ?  O
O1  1.0  0.797695184899817  0.28056300371446224  0.1302494886538857  Uiso  ?  O
Ce1  1.0  0.8165486688249833  0.296236797664845  0.15811141942162177  Uiso  ?  Ce
Ce1  1.0  0.7621241253159378  0.2975234313069218  0.1948868910771265  Uiso  ?  Ce
Ce1  1.0  0.7658972192334819  0.29717487141806914  0.13334462646369413  Uiso  ?  Ce
O1  1.0  0.7792432674219331  0.3076972041609773  0.16076499878714992  Uiso  ?  O
O1  1.0  0.7616641689562825  0.3325869645194705  0.1277505394546993  Uiso  ?  O
O1  1.0  0.7592044452623536  0.3344558658607351  0.1884925035865355  Uiso  ?  O
O1  1.0  0.7421212611191225  0.28321734050691144  0.162613532647859  Uiso  ?  O
O1  1.0  0.7261255816091152  0.3092327486714564  0.1307584510557375  Uiso  ?  O
O1  1.0  0.7264885079282427  0.30910541653107  0.1905081779283061  Uiso  ?  O
O1  1.0  0.7089277230816665  0.33669929173898727  0.1637555336045573  Uiso  ?  O
O1  1.0  0.7090553901455439  0.33534569185686036  0.22202939954485978  Uiso  ?  O
Ce1  1.0  0.7081274557055419  0.2986941848898367  0.16227884274488857  Uiso  ?  Ce
O1  1.0  0.6885027926926146  0.2809938498824242  0.12834824568339903  Uiso  ?  O
O1  1.0  0.6910147879663124  0.2836395224319717  0.18924535139618523  Uiso  ?  O
O1  1.0  0.669033258437144  0.30660295440855706  0.16083389921358238  Uiso  ?  O
O1  1.0  0.6371854662025125  0.28307137085955053  0.16098553615874608  Uiso  ?  O
Ce1  1.0  0.7091476865130526  0.296287279226628  0.22258392973073585  Uiso  ?  Ce
Ce1  1.0  0.6547675628792997  0.2954619023927053  0.25615406962333687  Uiso  ?  Ce
Ce1  1.0  0.6514398877062669  0.2934294475257169  0.1927167409745822  Uiso  ?  Ce
O1  1.0  0.6698003655906104  0.3076899439711559  0.22310246558834027  Uiso  ?  O
O1  1.0  0.652918276278113  0.33330079338479024  0.1921411094981761  Uiso  ?  O
O1  1.0  0.6513457553134349  0.3362592121687359  0.2546895038376125  Uiso  ?  O
O1  1.0  0.6352390216693152  0.2825236771571149  0.2238112936443074  Uiso  ?  O
O1  1.0  0.6179085681143338  0.30551951085241735  0.19412381673623672  Uiso  ?  O
O1  1.0  0.6157486585557259  0.3094939644290627  0.25397136717800883  Uiso  ?  O
O1  1.0  0.6005011978943177  0.3373726479438666  0.22346905259886565  Uiso  ?  O
O1  1.0  0.6012861571498662  0.33468308536973723  0.2859779885104489  Uiso  ?  O
Ce1  1.0  0.5999341354469895  0.29746659529605657  0.21958015520444032  Uiso  ?  Ce
O1  1.0  0.5825125176932062  0.28331896506814835  0.1923919237965624  Uiso  ?  O
O1  1.0  0.5808630640604346  0.2850874501207195  0.25290310639456093  Uiso  ?  O
O1  1.0  0.5642014190822368  0.30948506918045  0.22429551396690683  Uiso  ?  O
O1  1.0  0.5274457149146571  0.28310963684827256  0.22091058729112398  Uiso  ?  O
Ce1  1.0  0.597350051080871  0.2953152385117841  0.286256704530972  Uiso  ?  Ce
Ce1  1.0  0.5409573549757558  0.29686505908804295  0.31690943485341483  Uiso  ?  Ce
Ce1  1.0  0.5438296820849344  0.2995790973221567  0.2547258580291318  Uiso  ?  Ce
O1  1.0  0.5618583295565808  0.31043666866280706  0.28701715432275227  Uiso  ?  O
O1  1.0  0.5447186903474401  0.336573223278789  0.2534766881267059  Uiso  ?  O
O1  1.0  0.544184974572019  0.33481629404685725  0.3153546205190559  Uiso  ?  O
O1  1.0  0.5268489204221272  0.2855969991189137  0.28199561980883703  Uiso  ?  O
O1  1.0  0.5073327406034966  0.30857681980013674  0.2549882369263885  Uiso  ?  O
O1  1.0  0.509775028553483  0.30743130682129666  0.31868687673506657  Uiso  ?  O
O1  1.0  0.4915820892612812  0.3351590199090896  0.28657775989434725  Uiso  ?  O
O1  1.0  0.4890837181091147  0.3357085961358913  0.34645612123490566  Uiso  ?  O
Ce1  1.0  0.49079253162840564  0.29842549828378856  0.283533786605605  Uiso  ?  Ce
O1  1.0  0.47328874106088564  0.28229159512107116  0.25491935707658064  Uiso  ?  O
O1  1.0  0.4721175224360901  0.2855224060191317  0.31731244869190545  Uiso  ?  O
O1  1.0  0.45095166452445057  0.30927761699692874  0.2839801529549025  Uiso  ?  O
O1  1.0  0.4180311650861479  0.27968043168817847  0.2847806488804479  Uiso  ?  O
Ce1  1.0  0.4925366003698522  0.2962822516108513  0.3482728520272859  Uiso  ?  Ce
Ce1  1.0  0.43725194181126703  0.29504535447014907  0.3819834980954796  Uiso  ?  Ce
Ce1  1.0  0.4336454396746334  0.3003188467956661  0.31505402353140627  Uiso  ?  Ce
O1  1.0  0.4557154974798867  0.3090795248562314  0.35040398895408764  Uiso  ?  O
O1  1.0  0.43592358519636487  0.33441973507323863  0.31642742077002106  Uiso  ?  O
O1  1.0  0.43585563394183297  0.33058905894655316  0.37771640281517704  Uiso  ?  O
O1  1.0  0.41678872495990804  0.287492925563788  0.34759849918837454  Uiso  ?  O
O1  1.0  0.39918653331355597  0.31005035185907365  0.3162538777452762  Uiso  ?  O
O1  1.0  0.39870440749284275  0.3070045884551828  0.37672260339334973  Uiso  ?  O
O1  1.0  0.38178028628135346  0.33574248242347726  0.3463359107903279  Uiso  ?  O
O1  1.0  0.3801481340670991  0.3350461547933712  0.4120363155272256  Uiso  ?  O
Ce1  1.0  0.38075816218351904  0.29470072222124066  0.34903655845014225  Uiso  ?  Ce
O1  1.0  0.36381220011364485  0.2838295081897565  0.3161386924861991  Uiso  ?  O
O1  1.0  0.3624440798325795  0.28518041923543536  0.38043173554713905  Uiso  ?  O
O1  1.0  0.34486896961659735  0.30904026954225733  0.34849242610071  Uiso  ?  O
O1  1.0  0.30888387587512417  0.28397317373773817  0.3452024476432683  Uiso  ?  O
Ce1  1.0  0.37770471584901716  0.29608235401663996  0.40861080080543305  Uiso  ?  Ce
Ce1  1.0  0.3255169750340428  0.295013656950535  0.4401554674172629  Uiso  ?  Ce
Ce1  1.0  0.32694603993082133  0.29633332702048854  0.3779085894657837  Uiso  ?  Ce
O1  1.0  0.34771525543162285  0.3090788623612427  0.41202881315189577  Uiso  ?  O
O1  1.0  0.3246594712383431  0.33744789413126314  0.3781368152551063  Uiso  ?  O
O1  1.0  0.32636393334971164  0.3355104599104923  0.44063248686764517  Uiso  ?  O
O1  1.0  0.31152273367671385  0.28559260299357686  0.40645838093618175  Uiso  ?  O
O1  1.0  0.29248037960284357  0.3071212791470877  0.3789238150650664  Uiso  ?  O
O1  1.0  0.2920143929575103  0.3118428569814671  0.4392847106481007  Uiso  ?  O
O1  1.0  0.27375439774364013  0.33442533315334144  0.4093777176863527  Uiso  ?  O
O1  1.0  0.2722257866416369  0.33174229338884526  0.46993240659457236  Uiso  ?  O
Ce1  1.0  0.27539524719782543  0.2940586696678722  0.40776363470153565  Uiso  ?  Ce
O1  1.0  0.2533823676207616  0.283743058606901  0.37792630257017384  Uiso  ?  O
O1  1.0  0.2560450402625149  0.2874607445585434  0.44285544021844475  Uiso  ?  O
O1  1.0  0.2362907623076483  0.3108514465722172  0.40725807650927837  Uiso  ?  O
O1  1.0  0.20162186460421402  0.2855625032827767  0.4100552288209806  Uiso  ?  O
Ce1  1.0  0.27021168586881517  0.295665236494493  0.47146405997003155  Uiso  ?  Ce
Ce1  1.0  0.21779424395981015  0.2954354744799838  0.5049783188664002  Uiso  ?  Ce
Ce1  1.0  0.21861622085557714  0.29621990372732504  0.4415843744074915  Uiso  ?  Ce
O1  1.0  0.23778467748292234  0.30915384384290706  0.47142401928960115  Uiso  ?  O
O1  1.0  0.2174326498827924  0.33428066956285246  0.4393507642134453  Uiso  ?  O
O1  1.0  0.21804728650427133  0.33657003636678956  0.5033180241922549  Uiso  ?  O
O1  1.0  0.2010628010517991  0.2827140523351474  0.47145496571558126  Uiso  ?  O
O1  1.0  0.18381839238752884  0.30812206609651127  0.44118943927345644  Uiso  ?  O
O1  1.0  0.18094225245032447  0.3094534776893869  0.5021600459981145  Uiso  ?  O
O1  1.0  0.1664354987210938  0.3365140624876377  0.4721189890869675  Uiso  ?  O
O1  1.0  0.16597839350385052  0.3321023390994014  0.5336334233785752  Uiso  ?  O
Ce1  1.0  0.16561052130358195  0.2977873196209244  0.47336493947745556  Uiso  ?  Ce
Ce1  1.0  0.6520470847926058  0.2956361081230821  0.12820935810080475  Uiso  ?  Ce
O1  1.0  0.6526053385376717  0.33441865233658385  0.12946921767600264  Uiso  ?  O
O1  1.0  0.6194098269558278  0.3101645136380969  0.12708689596627212  Uiso  ?  O
O1  1.0  0.6015195555507921  0.33741057646670747  0.16122335250469505  Uiso  ?  O
O1  1.0  0.5798529537932792  0.2838361700778806  0.12942632770082124  Uiso  ?  O
Ce1  1.0  0.6009395137910565  0.2968820865860755  0.159391394220998  Uiso  ?  Ce
Ce1  1.0  0.543423847247977  0.2960445711863648  0.1908567819316186  Uiso  ?  Ce
Ce1  1.0  0.5427336067558425  0.29546781944076367  0.12922765223780092  Uiso  ?  Ce
O1  1.0  0.5624036782950794  0.3083458718549232  0.1592839699376732  Uiso  ?  O
O1  1.0  0.5454040773562656  0.33444307720317384  0.1314695802251938  Uiso  ?  O
O1  1.0  0.5444245482339682  0.33474424669001357  0.19001856519780003  Uiso  ?  O
O1  1.0  0.528027157986803  0.2824850600321958  0.16064658115156577  Uiso  ?  O
O1  1.0  0.5077881926394355  0.3090774120738917  0.1302740627074539  Uiso  ?  O
O1  1.0  0.5080846573759465  0.3101806824150266  0.19056716487116263  Uiso  ?  O
O1  1.0  0.4940753395233042  0.33335004159064113  0.15897822879505633  Uiso  ?  O
O1  1.0  0.48931704844681456  0.3365819249613864  0.2221087186430069  Uiso  ?  O
Ce1  1.0  0.49250060363894466  0.29415835319262484  0.1595853201394894  Uiso  ?  Ce
O1  1.0  0.4696117185036096  0.28527052018422866  0.12585843582593867  Uiso  ?  O
O1  1.0  0.4736276090165182  0.28319094168843756  0.1906383229307642  Uiso  ?  O
O1  1.0  0.45337055608431365  0.3110704801775355  0.15821824895775227  Uiso  ?  O
O1  1.0  0.4150183636614803  0.28168366034533254  0.16031438720985394  Uiso  ?  O
Ce1  1.0  0.49139324027871245  0.2969995830638271  0.22392166430031815  Uiso  ?  Ce
Ce1  1.0  0.4328547627544503  0.296778052636667  0.2532001162824962  Uiso  ?  Ce
Ce1  1.0  0.43237983595067947  0.2959685285466073  0.18795134067591548  Uiso  ?  Ce
O1  1.0  0.4541960123175503  0.30930519107870624  0.2209148945741698  Uiso  ?  O
O1  1.0  0.4373708630001331  0.3363386585088971  0.18983387562225307  Uiso  ?  O
O1  1.0  0.4354992746040148  0.3336437358452342  0.25248228607833567  Uiso  ?  O
O1  1.0  0.42001297206628624  0.2832045591021824  0.2217571006004318  Uiso  ?  O
O1  1.0  0.39811408147086713  0.3087110910849828  0.19224644439192082  Uiso  ?  O
O1  1.0  0.40311172083641683  0.3089801978706052  0.25397286199326446  Uiso  ?  O
O1  1.0  0.3822726031444294  0.33326719276252414  0.22184841469489544  Uiso  ?  O
O1  1.0  0.38150724458616503  0.33357192346744885  0.28452836423502686  Uiso  ?  O
Ce1  1.0  0.3836670158204506  0.2969789868941028  0.22059348272595028  Uiso  ?  Ce
O1  1.0  0.3631797070495388  0.28337993405685696  0.1902884582482161  Uiso  ?  O
O1  1.0  0.35808187328533553  0.2834034576649777  0.2529016132915817  Uiso  ?  O
O1  1.0  0.3462033422950377  0.3070525536242442  0.21992943426521697  Uiso  ?  O
O1  1.0  0.3101752650450785  0.28434899235470495  0.22072771990898424  Uiso  ?  O
Ce1  1.0  0.38315675979746405  0.2981764175524739  0.2847470194141126  Uiso  ?  Ce
Ce1  1.0  0.3285174109253523  0.29558950451766247  0.3137915148504743  Uiso  ?  Ce
Ce1  1.0  0.328752875899344  0.2962828929839731  0.25239464478354934  Uiso  ?  Ce
O1  1.0  0.3447840339049411  0.30856772938570376  0.2870146073358443  Uiso  ?  O
O1  1.0  0.3240371828342767  0.331128265473602  0.25281827551358393  Uiso  ?  O
O1  1.0  0.32826014550476645  0.3343955298790098  0.3134915259415417  Uiso  ?  O
O1  1.0  0.3093581661515214  0.2794614059225831  0.28153984557898465  Uiso  ?  O
O1  1.0  0.29018706008792045  0.31032706228504775  0.25385024032299974  Uiso  ?  O
O1  1.0  0.29140274586652265  0.30780897109923155  0.31459965376740123  Uiso  ?  O
O1  1.0  0.2755726726142884  0.3337124528642253  0.28299501702870317  Uiso  ?  O
O1  1.0  0.27658428622414133  0.3377735783939431  0.34500899481228575  Uiso  ?  O
Ce1  1.0  0.27525020049809584  0.29726958903935774  0.28254910801080807  Uiso  ?  Ce
O1  1.0  0.2532618538319313  0.28409162025481577  0.2530405223474607  Uiso  ?  O
O1  1.0  0.2564275457085922  0.28226533920032376  0.31372103783007577  Uiso  ?  O
O1  1.0  0.23657630766986795  0.3083690708530841  0.28012509104029887  Uiso  ?  O
O1  1.0  0.1990070829065373  0.2845164464019254  0.28442426228701717  Uiso  ?  O
Ce1  1.0  0.2744090500245452  0.29827483879379785  0.3446526173075717  Uiso  ?  Ce
Ce1  1.0  0.21695427704704032  0.29573983075557825  0.37869714517384845  Uiso  ?  Ce
Ce1  1.0  0.21773817031730772  0.2983341869727415  0.3141129217815536  Uiso  ?  Ce
O1  1.0  0.23747477150477278  0.30861598484719827  0.3456242163818879  Uiso  ?  O
O1  1.0  0.21601094850816077  0.3357275601278069  0.3136961364051813  Uiso  ?  O
O1  1.0  0.21775313163916835  0.3356676520218436  0.3771570187257139  Uiso  ?  O
O1  1.0  0.20037462358778158  0.28136473825979735  0.3505852789413085  Uiso  ?  O
O1  1.0  0.18184083466327236  0.3094141355628939  0.3156790112398466  Uiso  ?  O
O1  1.0  0.18182782360020047  0.31051105329430156  0.3761883032321765  Uiso  ?  O
Ce1  1.0  0.16552634811536995  0.2970887498466953  0.34609162767171536  Uiso  ?  Ce
Ce1  1.0  0.1640818466578955  0.2968887891004995  0.4086014945454481  Uiso  ?  Ce
Ce1  1.0  0.43713917851532635  0.29463503948898356  0.12961910822548625  Uiso  ?  Ce
O1  1.0  0.43680082265290743  0.33729009438292107  0.12773095163110973  Uiso  ?  O
O1  1.0  0.40069256969831524  0.3088949812542966  0.12718185760344805  Uiso  ?  O
O1  1.0  0.38227971647352177  0.3349087663937311  0.15957811030356212  Uiso  ?  O
O1  1.0  0.3649570077229932  0.2838851809409995  0.12672414786728056  Uiso  ?  O
Ce1  1.0  0.38327670805055236  0.29698459065033017  0.15820906875230997  Uiso  ?  Ce
Ce1  1.0  0.32778037016095996  0.29450494355116963  0.1907260492229787  Uiso  ?  Ce
Ce1  1.0  0.3272172702410841  0.2933634272488935  0.12577097120645792  Uiso  ?  Ce
O1  1.0  0.3455361927763413  0.3104458901259999  0.1581977848653721  Uiso  ?  O
O1  1.0  0.330430943220512  0.3365982221902092  0.1308868005559315  Uiso  ?  O
O1  1.0  0.3282534919677298  0.3362828920923898  0.18877878846154492  Uiso  ?  O
O1  1.0  0.3069993939241475  0.285164528941725  0.15699953706257486  Uiso  ?  O
O1  1.0  0.2916932838306234  0.3098388499893857  0.1308563379385746  Uiso  ?  O
O1  1.0  0.290127713260284  0.30768920868268473  0.1897148515954691  Uiso  ?  O
O1  1.0  0.27414027370004573  0.3361641770358652  0.15735419106087262  Uiso  ?  O
O1  1.0  0.27167947549870486  0.335509434207335  0.22500129787343953  Uiso  ?  O
Ce1  1.0  0.27195409025888756  0.297921555637474  0.1591808012865356  Uiso  ?  Ce
O1  1.0  0.2554216155352933  0.28554944920644637  0.12838429534914475  Uiso  ?  O
O1  1.0  0.2550275920271659  0.28445922689634917  0.1878368361515807  Uiso  ?  O
O1  1.0  0.23881509238737098  0.31092297543781844  0.1593707605900243  Uiso  ?  O
O1  1.0  0.20378807038634822  0.2835385540246088  0.15602417346375844  Uiso  ?  O
Ce1  1.0  0.27233919157382  0.29631274068548646  0.22107822591472012  Uiso  ?  Ce
Ce1  1.0  0.2160317077228782  0.294118109501894  0.2481406780858397  Uiso  ?  Ce
Ce1  1.0  0.2173337567415465  0.295816769201805  0.18793254483713506  Uiso  ?  Ce
O1  1.0  0.24000548977549394  0.3098804942624504  0.2202041217348954  Uiso  ?  O
O1  1.0  0.22206874595428536  0.3381949720162216  0.19186430953464012  Uiso  ?  O
O1  1.0  0.21634175625950156  0.3358878855434176  0.25388498871799087  Uiso  ?  O
O1  1.0  0.20285848029797718  0.28640468525761975  0.22320601863224665  Uiso  ?  O
O1  1.0  0.18256251451151723  0.3077534936098942  0.1888134716452619  Uiso  ?  O
O1  1.0  0.18122371704488757  0.3107470041460348  0.25373495696774373  Uiso  ?  O
O1  1.0  0.16503375240586393  0.3330174700875724  0.28225196156196936  Uiso  ?  O
Ce1  1.0  0.1657293871983312  0.29588295625875527  0.22076695822010203  Uiso  ?  Ce
Ce1  1.0  0.16890832958182975  0.2952740345080585  0.28161529674145724  Uiso  ?  Ce
Ce1  1.0  0.22099186636995807  0.2972612474625561  0.12603608789143964  Uiso  ?  Ce
O1  1.0  0.22115386256108238  0.33301871246640286  0.1270820964713411  Uiso  ?  O
O1  1.0  0.1860188699393393  0.3082610260889313  0.127828557638149  Uiso  ?  O
O1  1.0  0.1667696627021743  0.33381283765232794  0.15716883559579461  Uiso  ?  O
Ce1  1.0  0.16664334754656887  0.29647539950764373  0.15941806869679492  Uiso  ?  Ce
O1  1.0  0.8148624516330925  0.17907198612965264  0.8474866864931813  Uiso  ?  O
Ce1  1.0  0.8299334861987713  0.19547667465405166  0.879668232115725  Uiso  ?  Ce
O1  1.0  0.832100232074116  0.23318355926021336  0.8808349473780084  Uiso  ?  O
O1  1.0  0.7953182041241263  0.20500617667489657  0.882385439069615  Uiso  ?  O
O1  1.0  0.7603037254182737  0.18356904279490988  0.8821546898374332  Uiso  ?  O
O1  1.0  0.8137459922689397  0.17950183358358168  0.7226794539695595  Uiso  ?  O
Ce1  1.0  0.829896137223557  0.19383833150920338  0.8184899362128565  Uiso  ?  Ce
Ce1  1.0  0.8319254799687843  0.19263203796522002  0.7551166504594395  Uiso  ?  Ce
O1  1.0  0.8319834747202143  0.2336426161827127  0.7560067874032999  Uiso  ?  O
O1  1.0  0.8302649921892984  0.23115934979822886  0.8187099862825629  Uiso  ?  O
O1  1.0  0.816427568027192  0.2562089431959096  0.7865932649247599  Uiso  ?  O
O1  1.0  0.8088416284264298  0.18426749919503432  0.7873442567056643  Uiso  ?  O
O1  1.0  0.7944472904103261  0.2079940069224  0.7546434012001102  Uiso  ?  O
O1  1.0  0.7960367895579804  0.2069135977545953  0.8165184942596476  Uiso  ?  O
O1  1.0  0.775251165916081  0.2342893742038185  0.7851562505876795  Uiso  ?  O
Ce1  1.0  0.7941618540033726  0.24905917715118003  0.8812560491803323  Uiso  ?  Ce
Ce1  1.0  0.7930119340777145  0.24595838206106024  0.8184414358960169  Uiso  ?  Ce
O1  1.0  0.8131415229170055  0.25668056656903143  0.8497270088904803  Uiso  ?  O
O1  1.0  0.7760881573638734  0.23192314118554822  0.8481066769969974  Uiso  ?  O
O1  1.0  0.7587231688687421  0.25819305272004744  0.818136361624117  Uiso  ?  O
O1  1.0  0.7571935885187335  0.2564028470478565  0.8797646466309887  Uiso  ?  O
Ce1  1.0  0.7786799388086667  0.1954148137862724  0.7849616827235125  Uiso  ?  Ce
O1  1.0  0.7597573012240421  0.18226893070751746  0.7560542207236837  Uiso  ?  O
O1  1.0  0.7592684227590373  0.18136775295141844  0.8178202569994112  Uiso  ?  O
O1  1.0  0.7401642491934283  0.20586998575378238  0.7850104626444642  Uiso  ?  O
O1  1.0  0.7044467047457665  0.1823515167171486  0.7848967578460635  Uiso  ?  O
Ce1  1.0  0.7744781587764412  0.1924838446697022  0.8476208897239497  Uiso  ?  Ce
Ce1  1.0  0.7252553280826527  0.19640350394786585  0.8806721316794116  Uiso  ?  Ce
Ce1  1.0  0.7219074510165626  0.19403349971193556  0.81803049610227  Uiso  ?  Ce
Ce1  1.0  0.7412882669673095  0.24187420851397418  0.8508012519963533  Uiso  ?  Ce
O1  1.0  0.7426865886880402  0.20583400996676016  0.8514071893133746  Uiso  ?  O
O1  1.0  0.7198738133404304  0.23354226533857012  0.8181641681679385  Uiso  ?  O
O1  1.0  0.7238783644666668  0.2313341998023042  0.8824917650224768  Uiso  ?  O
O1  1.0  0.7039385022053237  0.25700252553905456  0.8510073289714046  Uiso  ?  O
O1  1.0  0.7040331505862653  0.18142950861923726  0.8500722064861179  Uiso  ?  O
O1  1.0  0.6848078811218519  0.2055953282413249  0.8187885239730279  Uiso  ?  O
O1  1.0  0.68414566601943  0.20738113391802118  0.8774523315037406  Uiso  ?  O
O1  1.0  0.6673510237593882  0.2316583996152097  0.8487034815749783  Uiso  ?  O
Ce1  1.0  0.6832483348019804  0.2495788220054172  0.881215991584222  Uiso  ?  Ce
O1  1.0  0.651512141277558  0.256388927148824  0.8803559817105429  Uiso  ?  O
Ce1  1.0  0.6695163333475461  0.1952300972162988  0.8496794474341861  Uiso  ?  Ce
O1  1.0  0.6473195961455487  0.18151172491427517  0.8185125169399275  Uiso  ?  O
O1  1.0  0.6502871348536249  0.18300773330294326  0.8806417486597812  Uiso  ?  O
O1  1.0  0.6311663547774843  0.20503789168481398  0.8465388919140385  Uiso  ?  O
O1  1.0  0.591423657036085  0.18298126245253682  0.8482656658379989  Uiso  ?  O
Ce1  1.0  0.6150203183588896  0.19478923378966626  0.8810075368746149  Uiso  ?  Ce
O1  1.0  0.6149549871101518  0.2311304283759526  0.8785748857911904  Uiso  ?  O
O1  1.0  0.5776713270526573  0.20720826230965392  0.8794266430742942  Uiso  ?  O
O1  1.0  0.5393276450443804  0.18351983950173126  0.8797896779333328  Uiso  ?  O
O1  1.0  0.8124846903097565  0.18035757972644628  0.5981501566875372  Uiso  ?  O
Ce1  1.0  0.830461243294112  0.193738312667995  0.6949970252917141  Uiso  ?  Ce
Ce1  1.0  0.8303797477038759  0.1924858762881333  0.631827680085927  Uiso  ?  Ce
O1  1.0  0.8315912178346383  0.23154399509637993  0.6318717735875806  Uiso  ?  O
O1  1.0  0.8327448745075134  0.23395170474473673  0.6924983958085061  Uiso  ?  O
O1  1.0  0.812257737155432  0.2566328097890503  0.6607665595640401  Uiso  ?  O
O1  1.0  0.8109482743800343  0.18085730526381522  0.6622639467122261  Uiso  ?  O
O1  1.0  0.7970390927862689  0.2054547147063123  0.6316423506534674  Uiso  ?  O
O1  1.0  0.7931424468471321  0.20651618030170824  0.6934516227963898  Uiso  ?  O
O1  1.0  0.7791689619846489  0.23023754994601214  0.66099442879915  Uiso  ?  O
Ce1  1.0  0.7950557483194037  0.24506817901535818  0.7566262432784188  Uiso  ?  Ce
Ce1  1.0  0.793663970428258  0.24330214743153375  0.691646761526954  Uiso  ?  Ce
O1  1.0  0.8122574746903328  0.2572238023471234  0.7232504000946296  Uiso  ?  O
O1  1.0  0.7783926004243522  0.23517060919326693  0.7238340387157514  Uiso  ?  O
O1  1.0  0.7578838950521987  0.2596636368878631  0.6927165520614501  Uiso  ?  O
O1  1.0  0.7562886194729557  0.2579195030838054  0.7579179755763116  Uiso  ?  O
Ce1  1.0  0.776254156809059  0.19549471804248167  0.6584882042867845  Uiso  ?  Ce
O1  1.0  0.7588098211142603  0.1788280065702209  0.6303823184224261  Uiso  ?  O
O1  1.0  0.7575589684816769  0.18166644373899554  0.6932458801850621  Uiso  ?  O
O1  1.0  0.7400391601901615  0.20650906443883882  0.6600079806130627  Uiso  ?  O
O1  1.0  0.7067056341199482  0.18039579916377638  0.6605767347434164  Uiso  ?  O
Ce1  1.0  0.775581263793761  0.1937046625731343  0.7255515263258903  Uiso  ?  Ce
Ce1  1.0  0.7220804730090423  0.19720645414638358  0.7549194043057404  Uiso  ?  Ce
Ce1  1.0  0.724498120703135  0.19278278522382758  0.6901364506842911  Uiso  ?  Ce
Ce1  1.0  0.7372208763549348  0.24622532116846946  0.7215637814570125  Uiso  ?  Ce
O1  1.0  0.7422350493495521  0.20645473204419373  0.7212435049329873  Uiso  ?  O
O1  1.0  0.724086500840281  0.2353099953274041  0.6923900937825562  Uiso  ?  O
O1  1.0  0.7234388107696009  0.2359749771212867  0.757584429596911  Uiso  ?  O
O1  1.0  0.7044078651885948  0.25909564269489527  0.7266055464363017  Uiso  ?  O
O1  1.0  0.7027621462185152  0.1823195176007753  0.7205316661604931  Uiso  ?  O
O1  1.0  0.686321005423145  0.2056055549421643  0.6930293932963869  Uiso  ?  O
O1  1.0  0.6855614770999634  0.20730035066505528  0.7544648221820618  Uiso  ?  O
O1  1.0  0.669555244344046  0.23306465837652376  0.726555207465906  Uiso  ?  O
Ce1  1.0  0.7406010450066203  0.24636543215620835  0.786706429139577  Uiso  ?  Ce
Ce1  1.0  0.6860851708634254  0.24664604878679172  0.8193924054472138  Uiso  ?  Ce
Ce1  1.0  0.6849263557903723  0.2446098815986852  0.7556131708579464  Uiso  ?  Ce
O1  1.0  0.7041221113040186  0.2591300156384542  0.7843145140985097  Uiso  ?  O
O1  1.0  0.6695506833144753  0.23520755012545141  0.7849595276768393  Uiso  ?  O
O1  1.0  0.6502496026013989  0.25967007215290006  0.7549448196918668  Uiso  ?  O
O1  1.0  0.6508772795914338  0.25756495899711934  0.8187673748186289  Uiso  ?  O
Ce1  1.0  0.6692708590875648  0.19542231438347063  0.7239719416599595  Uiso  ?  Ce
O1  1.0  0.6494655532859939  0.1808356519232259  0.6941904457311815  Uiso  ?  O
O1  1.0  0.6511146161799461  0.18152798907189283  0.7574574167455467  Uiso  ?  O
O1  1.0  0.6320704564149384  0.20579969416405855  0.7224298620014783  Uiso  ?  O
O1  1.0  0.5967310455472938  0.17988625168172168  0.7255937211735477  Uiso  ?  O
Ce1  1.0  0.6706716179317308  0.19358318556717127  0.7885915494273207  Uiso  ?  Ce
Ce1  1.0  0.6121786800464567  0.19178650371966796  0.8179849953373817  Uiso  ?  Ce
Ce1  1.0  0.6156837800785163  0.19367850736377665  0.755881816901034  Uiso  ?  Ce
Ce1  1.0  0.632393613686174  0.2472322481099483  0.78649267423586  Uiso  ?  Ce
O1  1.0  0.6336963028015231  0.20556567714576152  0.7864976066226861  Uiso  ?  O
O1  1.0  0.6158282446795127  0.23161327271169527  0.754043717170148  Uiso  ?  O
O1  1.0  0.6130280906670394  0.23592269440378802  0.8168376048720717  Uiso  ?  O
O1  1.0  0.5946300579243414  0.25808451562870954  0.7869638442175354  Uiso  ?  O
O1  1.0  0.5963215245177795  0.17987809249663478  0.7862795337010856  Uiso  ?  O
O1  1.0  0.5766586467515228  0.2067759458764521  0.7555143144388927  Uiso  ?  O
O1  1.0  0.5786645023236278  0.20663447422156628  0.816377225141536  Uiso  ?  O
O1  1.0  0.5608338319951777  0.23226419774137236  0.7857199599301931  Uiso  ?  O
Ce1  1.0  0.6351518240657342  0.24475408047357525  0.8478349394587458  Uiso  ?  Ce
Ce1  1.0  0.5769288849134235  0.24636606899380423  0.8788424651740327  Uiso  ?  Ce
Ce1  1.0  0.5793219777484795  0.245500286176137  0.8193165628511506  Uiso  ?  Ce
O1  1.0  0.5973993808710454  0.2593423322492487  0.8509675187778591  Uiso  ?  O
O1  1.0  0.5586751274465274  0.23084873158784266  0.8495106657137005  Uiso  ?  O
O1  1.0  0.5445377474892  0.2590740146693271  0.8158172765950437  Uiso  ?  O
O1  1.0  0.5373335240364454  0.25782688340222615  0.879296235482542  Uiso  ?  O
Ce1  1.0  0.5601677842042494  0.19424958022631036  0.785628545238377  Uiso  ?  Ce
O1  1.0  0.5426299154162483  0.1784463971404769  0.7544956422203424  Uiso  ?  O
O1  1.0  0.5443596455949771  0.18261756375423155  0.8199536165282855  Uiso  ?  O
O1  1.0  0.5237225296356803  0.207979939877185  0.7847025894110904  Uiso  ?  O
O1  1.0  0.4858194923241963  0.18273951895850096  0.7850960434830688  Uiso  ?  O
Ce1  1.0  0.5630517573286764  0.19483761214892945  0.847813034606483  Uiso  ?  Ce
Ce1  1.0  0.5074246210176294  0.19363266053043263  0.8800932754222512  Uiso  ?  Ce
Ce1  1.0  0.5084654160860985  0.19484522489645997  0.8153892978534849  Uiso  ?  Ce
Ce1  1.0  0.5224805388931308  0.24714689218545208  0.8455240018040134  Uiso  ?  Ce
O1  1.0  0.5240126276159212  0.2070689569281246  0.8484505393475872  Uiso  ?  O
O1  1.0  0.5023135848781309  0.23235167684661012  0.8162588285071903  Uiso  ?  O
O1  1.0  0.5027762647548867  0.2342874981767592  0.8771384277304053  Uiso  ?  O
O1  1.0  0.4837892768323621  0.25637114101484243  0.8448508142758993  Uiso  ?  O
O1  1.0  0.4882456010776943  0.17957999273645306  0.8468901148661042  Uiso  ?  O
O1  1.0  0.4703518381386722  0.2076237547384545  0.8159778495746699  Uiso  ?  O
O1  1.0  0.46959755617344917  0.20677515141245456  0.8765045374930582  Uiso  ?  O
O1  1.0  0.4513661940535332  0.23329409150684738  0.8524870285097942  Uiso  ?  O
Ce1  1.0  0.46856725875093913  0.24039869482538398  0.8781617185979989  Uiso  ?  Ce
O1  1.0  0.43351038562945576  0.2576836201543094  0.8793402592646  Uiso  ?  O
Ce1  1.0  0.4523853371737924  0.19329951000427467  0.8473358450080215  Uiso  ?  Ce
O1  1.0  0.43047014670988504  0.17935435693612511  0.817100568818528  Uiso  ?  O
O1  1.0  0.43580383600812056  0.17791093498421057  0.8815216154849864  Uiso  ?  O
O1  1.0  0.4161405611923463  0.20768489347106048  0.8476863586078894  Uiso  ?  O
O1  1.0  0.3783380971217731  0.18255549605152863  0.8447343158205286  Uiso  ?  O
Ce1  1.0  0.3964304429131597  0.19343174102112184  0.8800153185947504  Uiso  ?  Ce
O1  1.0  0.4008182667158287  0.23341696250035787  0.8787995967759703  Uiso  ?  O
O1  1.0  0.35997474983286254  0.20536180268244472  0.8749076287185658  Uiso  ?  O
O1  1.0  0.3249522992749143  0.18396282870039754  0.8790891414404758  Uiso  ?  O
O1  1.0  0.8141423561936272  0.18035852532607216  0.4747970877302163  Uiso  ?  O
Ce1  1.0  0.8313863834093045  0.1934973880718632  0.5690012113997187  Uiso  ?  Ce
Ce1  1.0  0.8326955142726957  0.19482023267129567  0.5019070838117967  Uiso  ?  Ce
O1  1.0  0.8320233887270158  0.23071651395648807  0.5063683053772133  Uiso  ?  O
O1  1.0  0.8310268954267824  0.23284104825875798  0.5653850509386763  Uiso  ?  O
O1  1.0  0.8129292708973468  0.2569720384876409  0.5349777905374589  Uiso  ?  O
O1  1.0  0.8134433451934906  0.17943745618297796  0.5369537849011181  Uiso  ?  O
O1  1.0  0.7973230600954185  0.2069631984717728  0.5054214568671268  Uiso  ?  O
O1  1.0  0.7949950143147433  0.20485769145610264  0.5687344728431335  Uiso  ?  O
O1  1.0  0.7791371340440559  0.23152805741507873  0.536466412289292  Uiso  ?  O
Ce1  1.0  0.7955977293108106  0.2427705356474776  0.6314568563951005  Uiso  ?  Ce
Ce1  1.0  0.7965537596851917  0.24827779746658102  0.5672245388229181  Uiso  ?  Ce
O1  1.0  0.8138397861439503  0.25878642989624434  0.60132114669278  Uiso  ?  O
O1  1.0  0.777356840165439  0.23209322745068678  0.5965924373497511  Uiso  ?  O
O1  1.0  0.7606852904425976  0.2565360650852907  0.5666620477141998  Uiso  ?  O
O1  1.0  0.7594860934309742  0.25451779188216195  0.6309940441894666  Uiso  ?  O
Ce1  1.0  0.7814306889637153  0.19339446471448934  0.5369880977845235  Uiso  ?  Ce
O1  1.0  0.7614617867152677  0.18107867021500487  0.5061880233175826  Uiso  ?  O
O1  1.0  0.7584146808596149  0.18383565256053463  0.568193760128583  Uiso  ?  O
O1  1.0  0.7427035414940617  0.20814582504392207  0.5362098859753851  Uiso  ?  O
O1  1.0  0.705724760002663  0.17983845230495166  0.5373956362337347  Uiso  ?  O
Ce1  1.0  0.7776306201595913  0.19663046913347237  0.5963425315059161  Uiso  ?  Ce
Ce1  1.0  0.7248100560786244  0.19359968247481793  0.6302804207214483  Uiso  ?  Ce
Ce1  1.0  0.7240782898303975  0.19733873851237768  0.5670954648215089  Uiso  ?  Ce
Ce1  1.0  0.7403493426177848  0.2471408079117807  0.5999879010225326  Uiso  ?  Ce
O1  1.0  0.7421931841054737  0.20634848832743644  0.5977759076706234  Uiso  ?  O
O1  1.0  0.7224974102073999  0.23119743380005253  0.5673122101075537  Uiso  ?  O
O1  1.0  0.7216331658194997  0.2349686848824181  0.6325747547099053  Uiso  ?  O
O1  1.0  0.7056957800617899  0.25858140294714643  0.5972440648525575  Uiso  ?  O
O1  1.0  0.7064877157226821  0.18425578512509896  0.6015946405591686  Uiso  ?  O
O1  1.0  0.6901970495878397  0.2023813885165522  0.5665629200028726  Uiso  ?  O
O1  1.0  0.6878131123883379  0.2062186833782053  0.6312889314272735  Uiso  ?  O
O1  1.0  0.6689266573862129  0.23188766257838492  0.5971676225188621  Uiso  ?  O
Ce1  1.0  0.74151029321706  0.24851586587614996  0.6628923303500734  Uiso  ?  Ce
Ce1  1.0  0.685731117467045  0.2435786520480054  0.6940573764009752  Uiso  ?  Ce
Ce1  1.0  0.6889503517195038  0.24504539114819454  0.6306554831765787  Uiso  ?  Ce
O1  1.0  0.705393977155667  0.2578208250906773  0.6611944967384855  Uiso  ?  O
O1  1.0  0.6711986366101709  0.23197470441758472  0.6595265687096737  Uiso  ?  O
O1  1.0  0.6502180903081822  0.25527569702914216  0.6323207403527686  Uiso  ?  O
O1  1.0  0.6511532477448073  0.25828160486367857  0.692251536740907  Uiso  ?  O
Ce1  1.0  0.6688508759027001  0.19108220138186663  0.6014077645523289  Uiso  ?  Ce
O1  1.0  0.6542474004477999  0.18035094222922787  0.5689926648546325  Uiso  ?  O
O1  1.0  0.649535216416375  0.18160038525601993  0.6297482191759539  Uiso  ?  O
O1  1.0  0.6320353107303165  0.20865323508556033  0.6007871984734285  Uiso  ?  O
O1  1.0  0.5975760192696615  0.18111561632298545  0.6023450583169151  Uiso  ?  O
Ce1  1.0  0.6693512566839257  0.19447021040933393  0.6610850291208753  Uiso  ?  Ce
Ce1  1.0  0.615877143854861  0.19214645294685903  0.691262921245488  Uiso  ?  Ce
Ce1  1.0  0.613481613480458  0.19466759198160882  0.628414384388925  Uiso  ?  Ce
Ce1  1.0  0.6348087243176536  0.24432522565436063  0.6634188067437143  Uiso  ?  Ce
O1  1.0  0.6309745007437285  0.20556392279963281  0.6597876666919635  Uiso  ?  O
O1  1.0  0.6142879997373139  0.2353772947280383  0.632539459770155  Uiso  ?  O
O1  1.0  0.6130478765504345  0.23185575323420649  0.691991581059754  Uiso  ?  O
O1  1.0  0.5970243156487991  0.2595152670952689  0.6591662458148126  Uiso  ?  O
O1  1.0  0.5958264294274939  0.1783306199375014  0.6630045351308491  Uiso  ?  O
O1  1.0  0.5798791390388212  0.20673223570985874  0.6286955208937339  Uiso  ?  O
O1  1.0  0.5755177330637234  0.2054427188503854  0.6897212434449441  Uiso  ?  O
O1  1.0  0.5623315796741912  0.23505971767306486  0.6593601210951623  Uiso  ?  O
Ce1  1.0  0.6306127405514081  0.2440885846775262  0.724648443572169  Uiso  ?  Ce
Ce1  1.0  0.5799991161474171  0.24646797142192603  0.7552977709078904  Uiso  ?  Ce
Ce1  1.0  0.5781994007392163  0.24317338929982837  0.6949981650899314  Uiso  ?  Ce
O1  1.0  0.597676974931871  0.25958606928105155  0.7247305532998614  Uiso  ?  O
O1  1.0  0.5635848535574299  0.23330665959750058  0.7223715715636442  Uiso  ?  O
O1  1.0  0.5430830633187421  0.2582846901161902  0.6886038474288243  Uiso  ?  O
O1  1.0  0.5410472004336211  0.2593079132712486  0.7553904251990178  Uiso  ?  O
Ce1  1.0  0.5617438592377925  0.19075924741389544  0.6601278406253217  Uiso  ?  Ce
O1  1.0  0.5423103867695923  0.18293551202212804  0.6297663794453839  Uiso  ?  O
O1  1.0  0.5386829775238036  0.1822411398340553  0.689856809343206  Uiso  ?  O
O1  1.0  0.5220144839371316  0.20937327514059034  0.6598589965102148  Uiso  ?  O
O1  1.0  0.48679711373662865  0.18156700550880386  0.6591629182493793  Uiso  ?  O
Ce1  1.0  0.5585433224474202  0.19320593632403837  0.7197851464058732  Uiso  ?  Ce
Ce1  1.0  0.504340267930116  0.1958231436103479  0.7526434692875865  Uiso  ?  Ce
Ce1  1.0  0.5061269009820828  0.19363972216317119  0.6936440348050019  Uiso  ?  Ce
Ce1  1.0  0.5257866063574119  0.24539949797849675  0.725561526232165  Uiso  ?  Ce
O1  1.0  0.52521059339134  0.2079725430137665  0.7274679330022445  Uiso  ?  O
O1  1.0  0.5052663345834226  0.2322092673846592  0.6884693441108354  Uiso  ?  O
O1  1.0  0.5081497793008319  0.2317976567793741  0.7515743980911401  Uiso  ?  O
O1  1.0  0.48422680341550345  0.25790034301019504  0.7232280691678342  Uiso  ?  O
O1  1.0  0.48876323270177524  0.18385076847992998  0.7250460926510082  Uiso  ?  O
O1  1.0  0.4686768713061249  0.20700520026389113  0.6888731610789746  Uiso  ?  O
O1  1.0  0.4719628338605156  0.20723597603250063  0.7531499643892355  Uiso  ?  O
O1  1.0  0.45244289051633496  0.23587557688090505  0.7256312015601344  Uiso  ?  O
Ce1  1.0  0.5249895219098732  0.24215015940470364  0.7830136993954997  Uiso  ?  Ce
Ce1  1.0  0.469638489462497  0.24467274463280142  0.8180997280685831  Uiso  ?  Ce
Ce1  1.0  0.47586554543485093  0.2451792705350738  0.7509981257203897  Uiso  ?  Ce
O1  1.0  0.48927244495719097  0.25439825963253637  0.7855859660463091  Uiso  ?  O
O1  1.0  0.4517457389273681  0.23270104383682022  0.7844451127106863  Uiso  ?  O
O1  1.0  0.4340129700503362  0.25622731256555065  0.7508965828044313  Uiso  ?  O
O1  1.0  0.4309683154032377  0.25433628841767186  0.8179069844019592  Uiso  ?  O
Ce1  1.0  0.4536984719002473  0.1923986134950894  0.7242524291261728  Uiso  ?  Ce
O1  1.0  0.4349234013628232  0.18141792401018883  0.6919172552875299  Uiso  ?  O
O1  1.0  0.4308995051468689  0.1812758551465853  0.7537758524776934  Uiso  ?  O
O1  1.0  0.4183372079400679  0.20716598215214113  0.7240663648074038  Uiso  ?  O
O1  1.0  0.3789935533107211  0.18258817431163732  0.7228989684268855  Uiso  ?  O
Ce1  1.0  0.4519797326743967  0.19274306039094874  0.7848912265562769  Uiso  ?  Ce
Ce1  1.0  0.3943465085475437  0.1947943450687547  0.8170528213043998  Uiso  ?  Ce
Ce1  1.0  0.39687884343125357  0.19253925403362956  0.7535913945210568  Uiso  ?  Ce
Ce1  1.0  0.41585588322483213  0.2456414786721524  0.7851845050736727  Uiso  ?  Ce
O1  1.0  0.41621212171797933  0.20736358796032428  0.7873508028230664  Uiso  ?  O
O1  1.0  0.39912267262067247  0.23182537902954983  0.7540241919230489  Uiso  ?  O
O1  1.0  0.40096777649529514  0.23354140232928797  0.8176950417804857  Uiso  ?  O
O1  1.0  0.378548388952268  0.2588305247659962  0.7865339975033785  Uiso  ?  O
O1  1.0  0.3797846702416252  0.18180540720400123  0.7830158890723681  Uiso  ?  O
O1  1.0  0.3597442454873444  0.20634157360269997  0.7534426747334295  Uiso  ?  O
O1  1.0  0.3614575356927597  0.20363447432591775  0.8151073663384495  Uiso  ?  O
O1  1.0  0.343201965360417  0.23163443255262853  0.785548231736179  Uiso  ?  O
Ce1  1.0  0.41274713390274254  0.2471189706500225  0.8484445094246698  Uiso  ?  Ce
Ce1  1.0  0.3607170080514944  0.24309193203952129  0.8777607879909025  Uiso  ?  Ce
Ce1  1.0  0.36247983264920336  0.2481892037368828  0.815672178105281  Uiso  ?  Ce
O1  1.0  0.3805607867721591  0.2593401002294517  0.8519899859590678  Uiso  ?  O
O1  1.0  0.34401137817277716  0.23293315115895916  0.8438415406023456  Uiso  ?  O
O1  1.0  0.32604506091640917  0.25916390116616567  0.8168596206845464  Uiso  ?  O
O1  1.0  0.32569439044960724  0.25693115778206177  0.878548787465414  Uiso  ?  O
Ce1  1.0  0.34300556108972735  0.1963363658256682  0.7850346562871966  Uiso  ?  Ce
O1  1.0  0.3269378495190855  0.18013082609364733  0.7525071825878503  Uiso  ?  O
O1  1.0  0.32648062009940104  0.17892065545545455  0.8154228640401787  Uiso  ?  O
O1  1.0  0.30681115498937744  0.20331364697112483  0.7840506723615971  Uiso  ?  O
O1  1.0  0.26970840106679167  0.18213700604753094  0.7841874499293129  Uiso  ?  O
Ce1  1.0  0.34373304712559966  0.1935196698982601  0.8436146546551675  Uiso  ?  Ce
Ce1  1.0  0.2872850511047206  0.19502943892700278  0.8763229735729094  Uiso  ?  Ce
Ce1  1.0  0.2862151258978562  0.1964384693753274  0.8149870858984992  Uiso  ?  Ce
Ce1  1.0  0.3067348687421864  0.24323454742471917  0.8481637564274073  Uiso  ?  Ce
O1  1.0  0.30463160243068377  0.2062660919426266  0.8497953202373744  Uiso  ?  O
O1  1.0  0.2887604015046797  0.23074759796424485  0.8127943745246862  Uiso  ?  O
O1  1.0  0.2901622185606514  0.23399777092387372  0.8816069728915285  Uiso  ?  O
O1  1.0  0.273902554631345  0.2583250191300425  0.8486176405736531  Uiso  ?  O
O1  1.0  0.2731783220594375  0.18125028032250592  0.8489636446347527  Uiso  ?  O
O1  1.0  0.255170166501313  0.20577949178703914  0.8144040974332469  Uiso  ?  O
O1  1.0  0.2532967908231287  0.20734211589713186  0.8768206430887016  Uiso  ?  O
O1  1.0  0.2335346828972656  0.229616137996079  0.8455490431262339  Uiso  ?  O
Ce1  1.0  0.252254045786725  0.24589754664682686  0.8797095535112504  Uiso  ?  Ce
O1  1.0  0.2164623271311437  0.2583093665002226  0.8792239661085554  Uiso  ?  O
Ce1  1.0  0.23428694354495483  0.19415017588650724  0.8477605557676389  Uiso  ?  Ce
O1  1.0  0.21838529520833488  0.1849922214937828  0.8158860075707899  Uiso  ?  O
O1  1.0  0.21621240109228254  0.1820451641884417  0.8794217546771771  Uiso  ?  O
O1  1.0  0.1980266137292416  0.2068520044467916  0.8454899349169531  Uiso  ?  O
O1  1.0  0.16370969570187227  0.1805838533477669  0.8472788302662779  Uiso  ?  O
Ce1  1.0  0.18141398396398825  0.19415985401842212  0.8779537168405991  Uiso  ?  Ce
O1  1.0  0.17939207854857087  0.23248239608716875  0.8772389037068722  Uiso  ?  O
O1  1.0  0.8130381384169335  0.18252200736368068  0.3483224742226473  Uiso  ?  O
Ce1  1.0  0.8310360138490659  0.193088814272713  0.44663962703702276  Uiso  ?  Ce
Ce1  1.0  0.8341098462390567  0.19692986999949216  0.3765667718961594  Uiso  ?  Ce
O1  1.0  0.8341796742089396  0.2333974443017147  0.37954638580617794  Uiso  ?  O
O1  1.0  0.831766000183506  0.23531205904954308  0.4430949397252355  Uiso  ?  O
O1  1.0  0.8181935792222734  0.25875926433548857  0.41218598968865455  Uiso  ?  O
O1  1.0  0.8141313191516072  0.18115796011449178  0.41486605640460555  Uiso  ?  O
O1  1.0  0.7962212381785632  0.20674748313794739  0.37815197562485325  Uiso  ?  O
O1  1.0  0.7970842013493973  0.2083399990792386  0.43798382370421624  Uiso  ?  O
O1  1.0  0.7814046319288394  0.2334743691234366  0.4113118170206762  Uiso  ?  O
Ce1  1.0  0.7955569260056576  0.2472865267547707  0.5052509086974044  Uiso  ?  Ce
Ce1  1.0  0.7901574324220643  0.24752731191165708  0.4435991574321458  Uiso  ?  Ce
O1  1.0  0.8134669970318041  0.25993362238089246  0.4764451496475029  Uiso  ?  O
O1  1.0  0.7778717015106011  0.23148282173777932  0.47341112541755576  Uiso  ?  O
O1  1.0  0.7632108087052402  0.2590322384409069  0.4418989682717754  Uiso  ?  O
O1  1.0  0.760600351496238  0.2555490118103486  0.5020855099987704  Uiso  ?  O
Ce1  1.0  0.7801917947956197  0.19512857099574163  0.4111247216044403  Uiso  ?  Ce
O1  1.0  0.7597543138635403  0.1798475297122797  0.37845082331625063  Uiso  ?  O
O1  1.0  0.7589356425659276  0.18157396247018526  0.4394170287198444  Uiso  ?  O
O1  1.0  0.7440173467460779  0.20571850770933495  0.4134129481707715  Uiso  ?  O
O1  1.0  0.7054207553451849  0.1796329228060359  0.41114751647575487  Uiso  ?  O
Ce1  1.0  0.7786176990295288  0.19522465845282863  0.47210396985396913  Uiso  ?  Ce
Ce1  1.0  0.7233073622198648  0.19519583909453608  0.5046947246470561  Uiso  ?  Ce
Ce1  1.0  0.7251146622369287  0.19485337291288926  0.4430171258907267  Uiso  ?  Ce
Ce1  1.0  0.7423943615572878  0.2467799148846445  0.4730122249987436  Uiso  ?  Ce
O1  1.0  0.7418611543737016  0.20628675352582942  0.4769236416078032  Uiso  ?  O
O1  1.0  0.7237972507527176  0.2338848159033471  0.439495041266886  Uiso  ?  O
O1  1.0  0.724981043741988  0.2351938347014529  0.503905680304339  Uiso  ?  O
O1  1.0  0.7070172947039468  0.2563919876537583  0.4709003997038444  Uiso  ?  O
O1  1.0  0.7065273728326097  0.1808297159121841  0.47351180303421736  Uiso  ?  O
O1  1.0  0.6883201613869131  0.207043735277547  0.44442012610834375  Uiso  ?  O
O1  1.0  0.6896173405817356  0.20843969445514599  0.5047406946892089  Uiso  ?  O
O1  1.0  0.6711067217310703  0.22997677107405487  0.472273679271396  Uiso  ?  O
Ce1  1.0  0.7399558052397165  0.24561146879968723  0.5359969951603702  Uiso  ?  Ce
Ce1  1.0  0.6869864344081562  0.24620097924271575  0.5679431614030394  Uiso  ?  Ce
Ce1  1.0  0.6884742268301128  0.2450279072895215  0.5054522292017558  Uiso  ?  Ce
O1  1.0  0.7095162020302928  0.255181936189289  0.5373162366694735  Uiso  ?  O
O1  1.0  0.666557780360356  0.23321094459662414  0.5348479142205743  Uiso  ?  O
O1  1.0  0.6505598167737124  0.2557828385225822  0.5036963241566745  Uiso  ?  O
O1  1.0  0.6488880568305131  0.25964817902881704  0.5677262113021633  Uiso  ?  O
Ce1  1.0  0.6683163600761205  0.1953567088862771  0.47056184682381874  Uiso  ?  Ce
O1  1.0  0.6493741578933766  0.17954269331910194  0.4408797465380847  Uiso  ?  O
O1  1.0  0.6497443180646261  0.18106555435745417  0.501995096158414  Uiso  ?  O
O1  1.0  0.6355827301874559  0.20710218776252384  0.47646557010717233  Uiso  ?  O
O1  1.0  0.5973764517367345  0.17829458510176288  0.4725058315252478  Uiso  ?  O
Ce1  1.0  0.6725815998909106  0.19571213913224655  0.5350768277427389  Uiso  ?  Ce
Ce1  1.0  0.6157802024989153  0.19389038212104784  0.567066530011729  Uiso  ?  Ce
Ce1  1.0  0.6157011320515023  0.1905894543627545  0.5057748690660245  Uiso  ?  Ce
Ce1  1.0  0.6334838653269907  0.24547719811805196  0.5339806568317695  Uiso  ?  Ce
O1  1.0  0.6355857721087209  0.20726033633814944  0.5373291435668531  Uiso  ?  O
O1  1.0  0.6143532108273516  0.23390270468599836  0.5041023977453933  Uiso  ?  O
O1  1.0  0.6146556231951091  0.2324359543426882  0.564887479919372  Uiso  ?  O
O1  1.0  0.599444768731189  0.25915786593162404  0.5351717817757159  Uiso  ?  O
O1  1.0  0.5957075909858549  0.18265252474078542  0.5326513362013955  Uiso  ?  O
O1  1.0  0.5798034797791675  0.2065817003998164  0.5002700627055076  Uiso  ?  O
O1  1.0  0.5796565103973436  0.20659711660053676  0.5668238833665451  Uiso  ?  O
O1  1.0  0.5614712757649484  0.23336453929799666  0.5330531031632343  Uiso  ?  O
Ce1  1.0  0.6314488835561146  0.24469978336476947  0.5981150935977974  Uiso  ?  Ce
Ce1  1.0  0.5775795367061358  0.2442658673774424  0.6304622393781543  Uiso  ?  Ce
Ce1  1.0  0.5790634001098978  0.2438745282510127  0.5656089120168407  Uiso  ?  Ce
O1  1.0  0.5995617161102237  0.2594789584686708  0.5967899447618338  Uiso  ?  O
O1  1.0  0.5628890591780809  0.23164618001393866  0.5955868042403284  Uiso  ?  O
O1  1.0  0.5428436922744928  0.2591510994701337  0.5663778067755342  Uiso  ?  O
O1  1.0  0.5426711591266405  0.25872236689170297  0.6273718885431023  Uiso  ?  O
Ce1  1.0  0.5604068100116968  0.19446199349341362  0.5369476620377427  Uiso  ?  Ce
O1  1.0  0.5469967054960646  0.1831540890874134  0.5033544458187675  Uiso  ?  O
O1  1.0  0.5446305741134995  0.181591689289967  0.5683716085622285  Uiso  ?  O
O1  1.0  0.523467752797444  0.20717905367912517  0.5342990988996432  Uiso  ?  O
O1  1.0  0.48755506089806444  0.18137861005368766  0.5361460489866438  Uiso  ?  O
Ce1  1.0  0.5629217654297194  0.1960796013537415  0.5970227479053615  Uiso  ?  Ce
Ce1  1.0  0.5068973067135544  0.19568584094675787  0.631397944350546  Uiso  ?  Ce
Ce1  1.0  0.5079083451823059  0.1954450660533332  0.5679139173357425  Uiso  ?  Ce
Ce1  1.0  0.5241506896272391  0.2478381244054873  0.5982071387210127  Uiso  ?  Ce
O1  1.0  0.5267952780360646  0.20885383176457364  0.5956625920049822  Uiso  ?  O
O1  1.0  0.5055975772285767  0.2314186573206588  0.5642100326733336  Uiso  ?  O
O1  1.0  0.5061810448477237  0.2331081007835291  0.6301717902343524  Uiso  ?  O
O1  1.0  0.48677496320218766  0.2573187541809531  0.593773807394458  Uiso  ?  O
O1  1.0  0.487747143769606  0.18393566898592761  0.5966983321387967  Uiso  ?  O
O1  1.0  0.47077995079003193  0.20717243051108417  0.5675141671227343  Uiso  ?  O
O1  1.0  0.4704869606181522  0.20444006204200557  0.6297604261531613  Uiso  ?  O
O1  1.0  0.4529527943039362  0.23429143951457182  0.5981806334085297  Uiso  ?  O
Ce1  1.0  0.5242464959385841  0.24540256359675297  0.6617267060126533  Uiso  ?  Ce
Ce1  1.0  0.4703240861530506  0.24796614039955667  0.6902033893857874  Uiso  ?  Ce
Ce1  1.0  0.4721411370738155  0.24525060987498049  0.6320610914432546  Uiso  ?  Ce
O1  1.0  0.4875826811123603  0.25448070943412004  0.6599389997672772  Uiso  ?  O
O1  1.0  0.45430285584281915  0.23018298884057165  0.6596670761803322  Uiso  ?  O
O1  1.0  0.4350642597565573  0.25691475538162806  0.6276717386959987  Uiso  ?  O
O1  1.0  0.43220847918106814  0.2579681760141563  0.6898066762846956  Uiso  ?  O
Ce1  1.0  0.45441905412482037  0.19540535546776996  0.593862552876224  Uiso  ?  Ce
O1  1.0  0.435679720472141  0.18227567441054945  0.5671589340423899  Uiso  ?  O
O1  1.0  0.4338521245499993  0.1822580964717528  0.6288527858001816  Uiso  ?  O
O1  1.0  0.41963989351399383  0.20669190453374914  0.5989523873609786  Uiso  ?  O
O1  1.0  0.37910206759559467  0.18235751533809147  0.59622283297902  Uiso  ?  O
Ce1  1.0  0.4524324872676817  0.19381622405929289  0.6598322314485497  Uiso  ?  Ce
Ce1  1.0  0.398294672540791  0.19562756117229466  0.6902508562912967  Uiso  ?  Ce
Ce1  1.0  0.39902365717870664  0.19318307995665487  0.6279169473517099  Uiso  ?  Ce
Ce1  1.0  0.41637293670449194  0.24415120107439722  0.6585811847116275  Uiso  ?  Ce
O1  1.0  0.4172247507986134  0.20747113789135754  0.6599307819777012  Uiso  ?  O
O1  1.0  0.3993732062046966  0.2329374855648196  0.6293641495353303  Uiso  ?  O
O1  1.0  0.39778280919365056  0.23004138866009585  0.6924304811440262  Uiso  ?  O
O1  1.0  0.3801976844777975  0.2609077565575739  0.6607292438020868  Uiso  ?  O
O1  1.0  0.38183416762572486  0.1802066354236263  0.6590119528395031  Uiso  ?  O
O1  1.0  0.36242349061493395  0.20815101717208553  0.6291791482780075  Uiso  ?  O
O1  1.0  0.35855943300681453  0.2099521838096846  0.6916922970350711  Uiso  ?  O
O1  1.0  0.34380131598368247  0.2315505053785489  0.6598047498232715  Uiso  ?  O
Ce1  1.0  0.41563831730875134  0.2471949376922236  0.7196482167155804  Uiso  ?  Ce
Ce1  1.0  0.3607947536584424  0.24659520443176985  0.7534765800586677  Uiso  ?  Ce
Ce1  1.0  0.36202368445817174  0.24676976423314045  0.6885136097565631  Uiso  ?  Ce
O1  1.0  0.3789393118949727  0.2591197738071817  0.7206087764819925  Uiso  ?  O
O1  1.0  0.34178756904625635  0.23337607976838368  0.7207097019629775  Uiso  ?  O
O1  1.0  0.32588333466598357  0.2587857059249335  0.6922731289607839  Uiso  ?  O
O1  1.0  0.3236286715231466  0.2593141244473305  0.7532127020779154  Uiso  ?  O
Ce1  1.0  0.34391082045007365  0.19299305584189835  0.6578522417520513  Uiso  ?  Ce
O1  1.0  0.325143765734452  0.18180708819098856  0.6280767049183135  Uiso  ?  O
O1  1.0  0.32529252141663273  0.18265946102639194  0.6911775349881866  Uiso  ?  O
O1  1.0  0.31074789513978535  0.20729391850645282  0.6586342138941389  Uiso  ?  O
O1  1.0  0.271736436766531  0.18280154813842026  0.6598617534406078  Uiso  ?  O
Ce1  1.0  0.3459507184295768  0.19888207277464057  0.7239990316215305  Uiso  ?  Ce
Ce1  1.0  0.29141066488390677  0.19251765953732197  0.75407248003363  Uiso  ?  Ce
Ce1  1.0  0.290297203158431  0.19715781387757578  0.6945820023396778  Uiso  ?  Ce
Ce1  1.0  0.3068304964411043  0.2461472456158072  0.7198746317819611  Uiso  ?  Ce
O1  1.0  0.3076144483754663  0.20645692593454007  0.7203079737088226  Uiso  ?  O
O1  1.0  0.28873522136791063  0.2323150797810133  0.6909129721492202  Uiso  ?  O
O1  1.0  0.28967363674181434  0.23349300101559106  0.7557340326558754  Uiso  ?  O
O1  1.0  0.26885555823679486  0.2565933113375207  0.7221767955853057  Uiso  ?  O
O1  1.0  0.271989600496272  0.18080528584630914  0.7206218826190505  Uiso  ?  O
O1  1.0  0.2537552549129725  0.2066643939992192  0.6903240618890278  Uiso  ?  O
O1  1.0  0.2571193897239235  0.2065727526757327  0.7523918185180212  Uiso  ?  O
O1  1.0  0.2378309928228936  0.23270548372592792  0.7212235162691923  Uiso  ?  O
Ce1  1.0  0.3080816864497582  0.24563341178128947  0.7871912951978447  Uiso  ?  Ce
Ce1  1.0  0.2533839509855628  0.24577619998560313  0.8176743547140098  Uiso  ?  Ce
Ce1  1.0  0.25438295518035486  0.24546434641000964  0.7512865493688663  Uiso  ?  Ce
O1  1.0  0.27120483525852074  0.25816165720257  0.7849836844857409  Uiso  ?  O
O1  1.0  0.23486400550557837  0.2309185107796728  0.7862944259167959  Uiso  ?  O
O1  1.0  0.21407116094001594  0.2589387189931396  0.7511940558280278  Uiso  ?  O
O1  1.0  0.21574718278276675  0.2584592730528268  0.8144369682438224  Uiso  ?  O
Ce1  1.0  0.23516504981096464  0.19440100393398144  0.7216705152755144  Uiso  ?  Ce
O1  1.0  0.21498149376177209  0.18409135624677556  0.6924441453301474  Uiso  ?  O
O1  1.0  0.21437346091998488  0.18215054837879893  0.7547496368832051  Uiso  ?  O
O1  1.0  0.19862773796904545  0.2073206137155955  0.7228950477934494  Uiso  ?  O
O1  1.0  0.16387694613780102  0.18133664271432554  0.7191902267131857  Uiso  ?  O
Ce1  1.0  0.23611932332733848  0.19365177358833563  0.7818446395600894  Uiso  ?  Ce
Ce1  1.0  0.1791352992729008  0.192441880599389  0.8155187329790979  Uiso  ?  Ce
Ce1  1.0  0.1817432196163881  0.19415878735500705  0.7537497254839061  Uiso  ?  Ce
Ce1  1.0  0.1998125955060392  0.2475826701884469  0.7818715489398734  Uiso  ?  Ce
O1  1.0  0.20000496138275192  0.20709910465527323  0.7846441028159349  Uiso  ?  O
O1  1.0  0.18039422096220573  0.23165971532114266  0.7506198654195645  Uiso  ?  O
O1  1.0  0.17929091141465556  0.2349367643297866  0.814070574704378  Uiso  ?  O
O1  1.0  0.1641505255380126  0.18567280721222937  0.7841090209123872  Uiso  ?  O
Ce1  1.0  0.20036711831568343  0.2439085737280107  0.8449777238258079  Uiso  ?  Ce
O1  1.0  0.8152401485765939  0.18011160465884246  0.2232002824935271  Uiso  ?  O
Ce1  1.0  0.8327295747504471  0.1925901147455604  0.3178023510221311  Uiso  ?  Ce
Ce1  1.0  0.8343297040483929  0.19443359813095998  0.25551852476838316  Uiso  ?  Ce
O1  1.0  0.8356691157273805  0.23344920952838077  0.25375504027231016  Uiso  ?  O
O1  1.0  0.8347726778920338  0.23224015354184246  0.31959074668477205  Uiso  ?  O
O1  1.0  0.8147966516389624  0.25426205042020694  0.28408992167780456  Uiso  ?  O
O1  1.0  0.8132589077251218  0.18054540491183757  0.2849230078783854  Uiso  ?  O
O1  1.0  0.7953599979048438  0.20786740132595372  0.25601001584562033  Uiso  ?  O
O1  1.0  0.795774146024127  0.20536222005163204  0.31867798983229967  Uiso  ?  O
O1  1.0  0.7801951434384468  0.23017455844916124  0.2844123574271821  Uiso  ?  O
Ce1  1.0  0.7956018496885569  0.2480796986957052  0.38210789628310415  Uiso  ?  Ce
Ce1  1.0  0.7990477567836535  0.24445429440957017  0.3148068950884967  Uiso  ?  Ce
O1  1.0  0.8145956298649296  0.25653509786963824  0.3473262882393986  Uiso  ?  O
O1  1.0  0.7826215032784669  0.23282473704692494  0.3471048365847066  Uiso  ?  O
O1  1.0  0.760503084775951  0.2559967850778129  0.3209511598871874  Uiso  ?  O
O1  1.0  0.7569512226912394  0.2574481928262693  0.37915746943058487  Uiso  ?  O
Ce1  1.0  0.7773156177876005  0.19298117018777605  0.28610251353461486  Uiso  ?  Ce
O1  1.0  0.7617988470659476  0.18031715308786628  0.2561738087247389  Uiso  ?  O
O1  1.0  0.760700905194735  0.18078490687425142  0.322045916658241  Uiso  ?  O
O1  1.0  0.7422401592269672  0.20791306365113954  0.28593121878407973  Uiso  ?  O
O1  1.0  0.7043708877363558  0.18270334110247977  0.2843910258326411  Uiso  ?  O
Ce1  1.0  0.7813752158125816  0.1920744460975856  0.3479991422894949  Uiso  ?  Ce
Ce1  1.0  0.7244946191423339  0.19170944374942597  0.37983267184787356  Uiso  ?  Ce
Ce1  1.0  0.7246686078150478  0.19643737485156823  0.31552963807199935  Uiso  ?  Ce
Ce1  1.0  0.7431005036712066  0.24723883105348615  0.34847577868198804  Uiso  ?  Ce
O1  1.0  0.7436138044037207  0.20483003645961123  0.3503700175953961  Uiso  ?  O
O1  1.0  0.7233121365237215  0.23308496066025292  0.3174337132539694  Uiso  ?  O
O1  1.0  0.7225428434421806  0.2325052612335799  0.381616273661755  Uiso  ?  O
O1  1.0  0.70652023410598  0.2581432695419863  0.3479728146986714  Uiso  ?  O
O1  1.0  0.7096899260856173  0.1802409827912729  0.3461091452094712  Uiso  ?  O
O1  1.0  0.6886319338646899  0.2058123885818235  0.31424157132931274  Uiso  ?  O
O1  1.0  0.6887991643329213  0.20757125553368616  0.38282586251017525  Uiso  ?  O
O1  1.0  0.6686409004915667  0.23309300231325739  0.3502717437536578  Uiso  ?  O
Ce1  1.0  0.74402601148623  0.24556959911149162  0.41050162730547823  Uiso  ?  Ce
Ce1  1.0  0.686503641211498  0.2435315282247999  0.43928590869490863  Uiso  ?  Ce
Ce1  1.0  0.6900385239474189  0.2457102132534247  0.37808377577639257  Uiso  ?  Ce
O1  1.0  0.7064644866437553  0.2579394215674276  0.40904224731613553  Uiso  ?  O
O1  1.0  0.6710798858097737  0.2331620065295449  0.40727631590291685  Uiso  ?  O
O1  1.0  0.6533342922553443  0.25712381017892294  0.3787473139462423  Uiso  ?  O
O1  1.0  0.6508707651041578  0.25600340305438085  0.4418665637485415  Uiso  ?  O
Ce1  1.0  0.6704173624052838  0.19541467772606727  0.34718933142871333  Uiso  ?  Ce
O1  1.0  0.6520708635959991  0.18177336539401684  0.3139093711558924  Uiso  ?  O
O1  1.0  0.6525531617906731  0.1817189481808439  0.38033340912421765  Uiso  ?  O
O1  1.0  0.6346713174585676  0.20446961604860608  0.3452079076524236  Uiso  ?  O
O1  1.0  0.59980150588221  0.18403536081456492  0.3464444706224715  Uiso  ?  O
Ce1  1.0  0.6726871935020869  0.19390892255633552  0.4112249119124909  Uiso  ?  Ce
Ce1  1.0  0.6132557256427988  0.1928718916761753  0.4405338762989167  Uiso  ?  Ce
Ce1  1.0  0.6143479476389765  0.1954454649969824  0.3794631480339007  Uiso  ?  Ce
Ce1  1.0  0.6314841604909657  0.24527330827837146  0.40901875530437065  Uiso  ?  Ce
O1  1.0  0.6351082226124809  0.2063043682832906  0.41032326206800157  Uiso  ?  O
O1  1.0  0.6143167386538557  0.2337141511632688  0.3801626277945636  Uiso  ?  O
O1  1.0  0.6155857189740707  0.2323076929224163  0.4398862213596321  Uiso  ?  O
O1  1.0  0.5962504287523762  0.2577763023948482  0.4071943125490206  Uiso  ?  O
O1  1.0  0.5991088812586602  0.18426013826214838  0.41118987507115146  Uiso  ?  O
O1  1.0  0.5808480514111187  0.20761595321942095  0.3806790365284958  Uiso  ?  O
O1  1.0  0.579330412638997  0.20981902750312656  0.4436144874046182  Uiso  ?  O
O1  1.0  0.5642586616669979  0.23375461574369233  0.41243450644736257  Uiso  ?  O
Ce1  1.0  0.6348010626820737  0.24633968413905338  0.4736238622297309  Uiso  ?  Ce
Ce1  1.0  0.5791758918128369  0.2481072079509571  0.5047999685572395  Uiso  ?  Ce
Ce1  1.0  0.5794595090251541  0.2458440600042218  0.4407218760020659  Uiso  ?  Ce
O1  1.0  0.5987772669570722  0.2616852767227459  0.4717608734474652  Uiso  ?  O
O1  1.0  0.5606675531025209  0.23562585579431333  0.4698975764385882  Uiso  ?  O
O1  1.0  0.5424607701029011  0.25741910918336447  0.4423384492985911  Uiso  ?  O
O1  1.0  0.5430732868551272  0.2586063693458737  0.5056851010621932  Uiso  ?  O
Ce1  1.0  0.5630052351233288  0.1946664818421691  0.4092137515530804  Uiso  ?  Ce
O1  1.0  0.546237526484773  0.18201042389463296  0.3807861391296316  Uiso  ?  O
O1  1.0  0.5437234876777872  0.18331274538894002  0.44305703344603414  Uiso  ?  O
O1  1.0  0.5267335671610763  0.20779330517999842  0.4126807084804651  Uiso  ?  O
O1  1.0  0.4882383160117178  0.18256061916645155  0.4132358555194718  Uiso  ?  O
Ce1  1.0  0.5607089850299656  0.19397582475570713  0.4728103689512168  Uiso  ?  Ce
Ce1  1.0  0.5095572092961483  0.19362335151069562  0.5013542572525258  Uiso  ?  Ce
Ce1  1.0  0.5066160897902728  0.1947512312089708  0.4396817607810132  Uiso  ?  Ce
Ce1  1.0  0.5242542826400964  0.24673896508959323  0.47022380643340317  Uiso  ?  Ce
O1  1.0  0.5234768163743202  0.2075116601616058  0.47017511497043907  Uiso  ?  O
O1  1.0  0.5101013202535262  0.23207822525463237  0.4417457854786034  Uiso  ?  O
O1  1.0  0.5049859167623763  0.23042285259517145  0.5041254438865964  Uiso  ?  O
O1  1.0  0.4897471877864071  0.2542587326026302  0.4723308304783594  Uiso  ?  O
O1  1.0  0.4894986018574673  0.18224206419232603  0.4725149804481962  Uiso  ?  O
O1  1.0  0.4724579999918382  0.2106065976973047  0.440994617843927  Uiso  ?  O
O1  1.0  0.4694866303266981  0.20723976081200016  0.5017801391837072  Uiso  ?  O
O1  1.0  0.4552579237634915  0.23100629518343796  0.47405583470627877  Uiso  ?  O
Ce1  1.0  0.5230868339073214  0.24660508199283412  0.5344464366993467  Uiso  ?  Ce
Ce1  1.0  0.47109386510894324  0.2453674814284071  0.5674250028371106  Uiso  ?  Ce
Ce1  1.0  0.47136119318581643  0.2450018883597044  0.5042834655555444  Uiso  ?  Ce
O1  1.0  0.4901706824493147  0.2575115107959047  0.5315452961726238  Uiso  ?  O
O1  1.0  0.4487923989502696  0.23231127316849495  0.53387294690289  Uiso  ?  O
O1  1.0  0.4346913052017242  0.25640389016934434  0.5047967981666717  Uiso  ?  O
O1  1.0  0.4377964268503684  0.2606235429393166  0.565872097399769  Uiso  ?  O
Ce1  1.0  0.4520911400803701  0.19419797583768317  0.47248046140477445  Uiso  ?  Ce
O1  1.0  0.4338571326169402  0.17997415794441274  0.44142940740812264  Uiso  ?  O
O1  1.0  0.43647491420098633  0.18084075382799725  0.5056981601725242  Uiso  ?  O
O1  1.0  0.41679348325877563  0.21019114809352074  0.4715751120879126  Uiso  ?  O
O1  1.0  0.37936524587386833  0.17923025675523419  0.4702883047424021  Uiso  ?  O
Ce1  1.0  0.45230283407042554  0.19545878290620328  0.5326966492937919  Uiso  ?  Ce
Ce1  1.0  0.40240894194283283  0.191386945840731  0.5655957906754447  Uiso  ?  Ce
Ce1  1.0  0.39917024239952614  0.19481450979623607  0.5019875519221478  Uiso  ?  Ce
Ce1  1.0  0.4156333348267989  0.24600041246850812  0.5340188113780573  Uiso  ?  Ce
O1  1.0  0.4174010941858502  0.20471970889864563  0.5327417839922516  Uiso  ?  O
O1  1.0  0.3983498649570207  0.234404108851914  0.5026798288012344  Uiso  ?  O
O1  1.0  0.39598784207441645  0.23006100343954486  0.5628342594922853  Uiso  ?  O
O1  1.0  0.3788712465990593  0.2593226566014089  0.5320407956901554  Uiso  ?  O
O1  1.0  0.3789547649022258  0.18302780154086803  0.53648906974401  Uiso  ?  O
O1  1.0  0.36392174101366337  0.20359211652537598  0.5045200056807814  Uiso  ?  O
O1  1.0  0.36525013995681904  0.2036778753995545  0.5651465837644878  Uiso  ?  O
O1  1.0  0.34594129015831726  0.22896951684633338  0.5327845384825014  Uiso  ?  O
Ce1  1.0  0.4175285436757993  0.24704720543549835  0.5983926475418357  Uiso  ?  Ce
Ce1  1.0  0.3629018488758511  0.24671773550528717  0.6275948216898435  Uiso  ?  Ce
Ce1  1.0  0.3653568463055006  0.24460894079035156  0.5667543438721319  Uiso  ?  Ce
O1  1.0  0.37596388730015157  0.25635482819533567  0.5991866839498082  Uiso  ?  O
O1  1.0  0.3427352976471  0.23310080170328792  0.596205535745167  Uiso  ?  O
O1  1.0  0.3278865795788556  0.2614427653821278  0.5634211317054523  Uiso  ?  O
O1  1.0  0.32458354088548286  0.25659935516600285  0.6257939452490523  Uiso  ?  O
Ce1  1.0  0.3457903721438775  0.19557600895348065  0.5314013406426107  Uiso  ?  Ce
O1  1.0  0.32748194459166535  0.18135225037171904  0.5041284634459626  Uiso  ?  O
O1  1.0  0.3277966052422796  0.18293798182218884  0.5655215955653285  Uiso  ?  O
O1  1.0  0.30627564130411716  0.2037425380964357  0.5341342698989395  Uiso  ?  O
O1  1.0  0.27294510092385005  0.18178685599162753  0.5335092467388772  Uiso  ?  O
Ce1  1.0  0.3448325554443517  0.19545067156975718  0.6010619767677667  Uiso  ?  Ce
Ce1  1.0  0.2894717730129804  0.19223907484665873  0.6279925849057266  Uiso  ?  Ce
Ce1  1.0  0.2908370093851708  0.19352254116045903  0.5685723593124096  Uiso  ?  Ce
Ce1  1.0  0.30697118964835474  0.24664800334516637  0.5936697541194135  Uiso  ?  Ce
O1  1.0  0.3071750014827832  0.20608760468970663  0.5969205734422076  Uiso  ?  O
O1  1.0  0.2891244885595095  0.23487844793462997  0.5644472980320657  Uiso  ?  O
O1  1.0  0.2913815993922289  0.23155053660742383  0.6333189259834076  Uiso  ?  O
O1  1.0  0.2737388220081853  0.2564999681514669  0.593600977993695  Uiso  ?  O
O1  1.0  0.26991410720898057  0.17982369188095745  0.5966788660068061  Uiso  ?  O
O1  1.0  0.25130099464682487  0.20543113110114297  0.5653233241921689  Uiso  ?  O
O1  1.0  0.2536915803009151  0.2088713669345654  0.6295512687222076  Uiso  ?  O
O1  1.0  0.23803376648328664  0.23304632654918941  0.5999596393483086  Uiso  ?  O
Ce1  1.0  0.30868434863946104  0.24419940026485631  0.6594783595488188  Uiso  ?  Ce
Ce1  1.0  0.253608684608754  0.24595149654124696  0.690144054057549  Uiso  ?  Ce
Ce1  1.0  0.252061594544415  0.2439571875358113  0.6268488659342552  Uiso  ?  Ce
O1  1.0  0.27367418651839653  0.25656231012239483  0.6604372697405572  Uiso  ?  O
O1  1.0  0.23550787308813234  0.2346422944648332  0.6575917279273328  Uiso  ?  O
O1  1.0  0.21655414101870024  0.25817448788844627  0.6271423064149283  Uiso  ?  O
O1  1.0  0.21833809185565423  0.2619484124849455  0.6916416808800047  Uiso  ?  O
Ce1  1.0  0.23468882028140428  0.19396378523958474  0.5965230341640908  Uiso  ?  Ce
O1  1.0  0.22060840710037227  0.18135742314385225  0.565378178994705  Uiso  ?  O
O1  1.0  0.2192056447987553  0.17977824778165835  0.6250867651363283  Uiso  ?  O
O1  1.0  0.19762273625649712  0.20729335498715723  0.5964581232155913  Uiso  ?  O
O1  1.0  0.16643598033663626  0.17832973992325996  0.5966662726614473  Uiso  ?  O
Ce1  1.0  0.23494101535424447  0.19369640445358313  0.6579173960025535  Uiso  ?  Ce
Ce1  1.0  0.18528490999585545  0.19358485486041688  0.6901376601277792  Uiso  ?  Ce
Ce1  1.0  0.18269918921645306  0.19461538509029913  0.6277263384646252  Uiso  ?  Ce
Ce1  1.0  0.20035565271663888  0.24240389104246096  0.6585675762014751  Uiso  ?  Ce
O1  1.0  0.20069454301008857  0.2074549676042144  0.6586346063483243  Uiso  ?  O
O1  1.0  0.18153818275401493  0.2332276522956726  0.6293679678510404  Uiso  ?  O
O1  1.0  0.18198142056599106  0.2340338023594323  0.6889906694125065  Uiso  ?  O
O1  1.0  0.16412898660929395  0.2590001553279971  0.657361406604741  Uiso  ?  O
O1  1.0  0.16376523211890492  0.18048939613046672  0.6612750556150787  Uiso  ?  O
Ce1  1.0  0.19910335176434388  0.2455103874561857  0.7228487283797778  Uiso  ?  Ce
O1  1.0  0.16363643519848867  0.25867234510197873  0.722041360265365  Uiso  ?  O
Ce1  1.0  0.8345357820381101  0.19421341206669562  0.19074205688294643  Uiso  ?  Ce
Ce1  1.0  0.8346109895747011  0.1921689170961671  0.13013670812022246  Uiso  ?  Ce
O1  1.0  0.8331181243241823  0.23307537777414963  0.13060869725341157  Uiso  ?  O
O1  1.0  0.8323148863079458  0.2329592648852144  0.19212098492049948  Uiso  ?  O
O1  1.0  0.8157844722434022  0.2584031340972891  0.16151964844563751  Uiso  ?  O
O1  1.0  0.817186459543928  0.1826161262016105  0.15821227801536353  Uiso  ?  O
O1  1.0  0.8002056902520186  0.2053386984489673  0.12801888456243246  Uiso  ?  O
O1  1.0  0.7978153120544728  0.20828459387317272  0.19315445889953753  Uiso  ?  O
O1  1.0  0.7807270463987861  0.23088653682195304  0.15993799490054694  Uiso  ?  O
Ce1  1.0  0.7943732406601344  0.2442751843977302  0.2553111953369618  Uiso  ?  Ce
Ce1  1.0  0.7981033693032603  0.2441145632727687  0.19262523717992822  Uiso  ?  Ce
O1  1.0  0.8169188503639976  0.25432194674550507  0.2240134328733809  Uiso  ?  O
O1  1.0  0.7837748676753872  0.23156086659388814  0.22659536294490595  Uiso  ?  O
O1  1.0  0.7606294905220399  0.2568073813705651  0.19156940451608268  Uiso  ?  O
O1  1.0  0.7602287923834665  0.25883511663231645  0.24991847343921003  Uiso  ?  O
Ce1  1.0  0.7775249615792381  0.19495824977059553  0.16172359118338053  Uiso  ?  Ce
O1  1.0  0.7595341265619915  0.18204018929842222  0.12790354924695455  Uiso  ?  O
O1  1.0  0.7612487597547536  0.1808035012959759  0.19260807780385641  Uiso  ?  O
O1  1.0  0.7458858485766716  0.2093068944720223  0.16043347151617326  Uiso  ?  O
O1  1.0  0.7073963727364266  0.1809864091565434  0.1584074134854786  Uiso  ?  O
Ce1  1.0  0.7802962655927462  0.19315845523877528  0.22436090346665333  Uiso  ?  Ce
Ce1  1.0  0.7285169237586365  0.1965917714837066  0.25547318348973647  Uiso  ?  Ce
Ce1  1.0  0.7250685839474333  0.19369942921543337  0.19260634099889506  Uiso  ?  Ce
Ce1  1.0  0.7426499960163424  0.2473059934130979  0.22432444400100324  Uiso  ?  Ce
O1  1.0  0.7440157658455678  0.20373076680487265  0.22232969471877126  Uiso  ?  O
O1  1.0  0.7229762705353222  0.23071115376826862  0.1920320465950518  Uiso  ?  O
O1  1.0  0.7259304408672766  0.23487683755217834  0.2534981006976388  Uiso  ?  O
O1  1.0  0.7080202849314343  0.2595421749465657  0.22547197088914359  Uiso  ?  O
O1  1.0  0.7076198443788011  0.1842314417950148  0.2243457704834021  Uiso  ?  O
O1  1.0  0.6887520652644433  0.20490652097461223  0.1930099923346217  Uiso  ?  O
O1  1.0  0.6906143515078885  0.20662294191483657  0.2552796459789913  Uiso  ?  O
O1  1.0  0.6697372301573601  0.2325826663022378  0.22229421664683516  Uiso  ?  O
Ce1  1.0  0.743482519277401  0.24540618048832497  0.2862007758526971  Uiso  ?  Ce
Ce1  1.0  0.6875477226022155  0.24523193842011934  0.3177211805805412  Uiso  ?  Ce
Ce1  1.0  0.6900002229587743  0.24468702218916594  0.25299748640633185  Uiso  ?  Ce
O1  1.0  0.7070771532901031  0.25553152545964575  0.28605093589029484  Uiso  ?  O
O1  1.0  0.6685765712234286  0.2333688550691637  0.28528637479176283  Uiso  ?  O
O1  1.0  0.6553128898141004  0.2576768902566019  0.2553003316693514  Uiso  ?  O
O1  1.0  0.6536159545298947  0.26028225634786734  0.31921625430540984  Uiso  ?  O
Ce1  1.0  0.6710614738574211  0.19477727095964847  0.22335775845747805  Uiso  ?  Ce
O1  1.0  0.6515120669020215  0.18016498278073223  0.19357605560947036  Uiso  ?  O
O1  1.0  0.6517955062374633  0.17986992369853397  0.25024583009860485  Uiso  ?  O
O1  1.0  0.633080476956857  0.20711575611344749  0.22498532774155947  Uiso  ?  O
O1  1.0  0.6021325571668268  0.1823736134089398  0.21937894489162074  Uiso  ?  O
Ce1  1.0  0.6689684834909883  0.19599294744126589  0.2834116209566736  Uiso  ?  Ce
Ce1  1.0  0.6156171192583145  0.19327682808990504  0.3169234538735499  Uiso  ?  Ce
Ce1  1.0  0.6165502618528453  0.19323399450054188  0.25358172278048985  Uiso  ?  Ce
Ce1  1.0  0.6345903690793293  0.24512445048182996  0.2868366569110003  Uiso  ?  Ce
O1  1.0  0.6372861455893635  0.2084969708641099  0.2854419621651922  Uiso  ?  O
O1  1.0  0.6172201293554139  0.23335339677654426  0.25485626015439494  Uiso  ?  O
O1  1.0  0.6178491887854434  0.2335952363994218  0.3160255993855316  Uiso  ?  O
O1  1.0  0.5979049038743949  0.25704249706093224  0.28361885317345537  Uiso  ?  O
O1  1.0  0.5981386973794368  0.18045090908564776  0.2851533001097314  Uiso  ?  O
O1  1.0  0.5805083187775523  0.20904404575456562  0.25382497556950295  Uiso  ?  O
O1  1.0  0.5816244991309396  0.20737595200632136  0.3169052854139992  Uiso  ?  O
O1  1.0  0.5618737532413116  0.22999344351126683  0.2851227135151233  Uiso  ?  O
Ce1  1.0  0.6346345790223209  0.24619928919126136  0.3457467165591775  Uiso  ?  Ce
Ce1  1.0  0.579842161889547  0.24276726449883063  0.37890527495589293  Uiso  ?  Ce
Ce1  1.0  0.580366414218723  0.24611324969625104  0.31904127505312047  Uiso  ?  Ce
O1  1.0  0.5981631206842384  0.25937723502747384  0.34733565560386614  Uiso  ?  O
O1  1.0  0.5607371989539056  0.23193929579532893  0.34834012525008023  Uiso  ?  O
O1  1.0  0.5424031453718947  0.2595532740536896  0.31600641225007314  Uiso  ?  O
O1  1.0  0.5444960444955306  0.2576135472109105  0.3777766349604104  Uiso  ?  O
Ce1  1.0  0.560021592630018  0.19717722571178567  0.285688124015523  Uiso  ?  Ce
O1  1.0  0.5430061650549273  0.18178665647792072  0.25543603763603945  Uiso  ?  O
O1  1.0  0.5454268106332336  0.17955589504469002  0.3137341357648627  Uiso  ?  O
O1  1.0  0.5232888259925609  0.20741779876723435  0.2881991175129112  Uiso  ?  O
O1  1.0  0.48832163665176126  0.18118624389946425  0.2869899121167953  Uiso  ?  O
Ce1  1.0  0.5608241286847216  0.1930746841139027  0.3475848539713597  Uiso  ?  Ce
Ce1  1.0  0.5100338037745148  0.1943698738328005  0.379977594948052  Uiso  ?  Ce
Ce1  1.0  0.5062408592153342  0.19576169246753414  0.31689959503314447  Uiso  ?  Ce
Ce1  1.0  0.5241203876817856  0.2427750497288607  0.3454663100437335  Uiso  ?  Ce
O1  1.0  0.524320101431421  0.2103680109368624  0.34582376773761647  Uiso  ?  O
O1  1.0  0.5090737914978787  0.23381740356708422  0.3145766625715084  Uiso  ?  O
O1  1.0  0.5079735000262773  0.23201395821072965  0.3776471343364067  Uiso  ?  O
O1  1.0  0.4919762148035364  0.2580811452274771  0.3467801049711361  Uiso  ?  O
O1  1.0  0.489637181108563  0.18250944424389193  0.3479663998232097  Uiso  ?  O
O1  1.0  0.47335923033852384  0.20231351351754917  0.31680658391789535  Uiso  ?  O
O1  1.0  0.47417037934102785  0.207874580339244  0.3787467077316886  Uiso  ?  O
O1  1.0  0.45172448392036424  0.22977511893428684  0.34902808776509037  Uiso  ?  O
Ce1  1.0  0.5273205479927882  0.24596755219211067  0.4139696687777958  Uiso  ?  Ce
Ce1  1.0  0.4757411255292677  0.24479022356966565  0.43893277500748684  Uiso  ?  Ce
Ce1  1.0  0.47137841097267463  0.24669190599676633  0.37623942280480455  Uiso  ?  Ce
O1  1.0  0.4918520711229782  0.26076226476774683  0.41048205866322357  Uiso  ?  O
O1  1.0  0.4561726294842625  0.2331317168247431  0.4106592138747808  Uiso  ?  O
O1  1.0  0.4356270546056355  0.25884232527192164  0.3788112415069507  Uiso  ?  O
O1  1.0  0.43838578853588184  0.2578036137260688  0.4389800286809693  Uiso  ?  O
Ce1  1.0  0.4511627317071647  0.1908300267447894  0.349458928776826  Uiso  ?  Ce
O1  1.0  0.4334594583630446  0.18241005016671416  0.3151514882094188  Uiso  ?  O
O1  1.0  0.43574510920186704  0.18204031588664352  0.37627868074248655  Uiso  ?  O
O1  1.0  0.4177031001422212  0.20669886201580592  0.3489872775969036  Uiso  ?  O
O1  1.0  0.38256917813791136  0.18086643850326786  0.34548512141176524  Uiso  ?  O
Ce1  1.0  0.455943203170485  0.19293404188514354  0.4099317499473385  Uiso  ?  Ce
Ce1  1.0  0.39945364041407827  0.1962655699035739  0.44063557686540156  Uiso  ?  Ce
Ce1  1.0  0.40014933925597085  0.19421608156229325  0.3748998616662802  Uiso  ?  Ce
Ce1  1.0  0.42067907719171976  0.24663335487842128  0.41002113921308153  Uiso  ?  Ce
O1  1.0  0.4190656241162744  0.2067958002122307  0.40869530526315306  Uiso  ?  O
O1  1.0  0.4017381676263496  0.231953404568724  0.3795590800785627  Uiso  ?  O
O1  1.0  0.39653378178593984  0.23123164555532166  0.4422778999290058  Uiso  ?  O
O1  1.0  0.3812525987372633  0.2596730656321753  0.4083058330395197  Uiso  ?  O
O1  1.0  0.3815068799768243  0.17899516602251198  0.41011400297226985  Uiso  ?  O
O1  1.0  0.3667637934054896  0.2049215815236627  0.3768761534915973  Uiso  ?  O
O1  1.0  0.36331865336971686  0.2054485612053322  0.44122715847508065  Uiso  ?  O
O1  1.0  0.34622794036806326  0.23098758775750275  0.4093231417332482  Uiso  ?  O
Ce1  1.0  0.4185927473811299  0.2465331784042339  0.4754677722339332  Uiso  ?  Ce
Ce1  1.0  0.3655359126592806  0.2464911354774182  0.5014984816473121  Uiso  ?  Ce
Ce1  1.0  0.36324150561627094  0.24258046718595533  0.44344909990994685  Uiso  ?  Ce
O1  1.0  0.37975785231583953  0.25816611232654946  0.4746286347454981  Uiso  ?  O
O1  1.0  0.34664936408630603  0.23509394784276305  0.4719408003310307  Uiso  ?  O
O1  1.0  0.3222924457911913  0.25711382068692934  0.4408924950625251  Uiso  ?  O
O1  1.0  0.32760583082108985  0.2584934407406842  0.5059015419530477  Uiso  ?  O
Ce1  1.0  0.34396190619957323  0.19849786981415662  0.4083005767481703  Uiso  ?  Ce
O1  1.0  0.3267748307915245  0.18276096571103523  0.37851387855857194  Uiso  ?  O
O1  1.0  0.32627891071640525  0.1813819834976145  0.4413125680029831  Uiso  ?  O
O1  1.0  0.3061896098083013  0.20868191585801385  0.4092467773865046  Uiso  ?  O
O1  1.0  0.27286430662604944  0.18120200469805078  0.4107195031166785  Uiso  ?  O
Ce1  1.0  0.34656883305984043  0.19242020582039043  0.47159201714423776  Uiso  ?  Ce
Ce1  1.0  0.28840071281283025  0.1927954315569398  0.5025829787899193  Uiso  ?  Ce
Ce1  1.0  0.2911414128530756  0.19678235905664837  0.43564713988721104  Uiso  ?  Ce
Ce1  1.0  0.30670145534443816  0.2450552717219632  0.47367353924588895  Uiso  ?  Ce
O1  1.0  0.3109201971439553  0.20660762387347523  0.4702102926732728  Uiso  ?  O
O1  1.0  0.29208486679263024  0.231890867757111  0.4409514243385777  Uiso  ?  O
O1  1.0  0.2887496183172255  0.23188378419939149  0.5020648365283722  Uiso  ?  O
O1  1.0  0.2721685215643375  0.2566181167247485  0.4728066219001871  Uiso  ?  O
O1  1.0  0.27091166338298867  0.18248898336582403  0.46795024236026705  Uiso  ?  O
O1  1.0  0.2546992339490563  0.20801525244224248  0.44124454783047795  Uiso  ?  O
O1  1.0  0.25640742081980156  0.205207271677634  0.5019201111696268  Uiso  ?  O
O1  1.0  0.23574658299059534  0.23383932087679424  0.4719230746666075  Uiso  ?  O
Ce1  1.0  0.31083711383018864  0.24703037653253146  0.5383806721359996  Uiso  ?  Ce
Ce1  1.0  0.2532081407091752  0.2447233522904987  0.5628162125257394  Uiso  ?  Ce
Ce1  1.0  0.25351250702672506  0.2429694639498996  0.5012059124720124  Uiso  ?  Ce
O1  1.0  0.2728768952770993  0.2568287311774883  0.5349543430274775  Uiso  ?  O
O1  1.0  0.237214783984941  0.2331508690079895  0.5326613940538807  Uiso  ?  O
O1  1.0  0.2175078749643222  0.2586131024812483  0.504035009537985  Uiso  ?  O
O1  1.0  0.21788112056044007  0.25731875231102136  0.5644515325229862  Uiso  ?  O
Ce1  1.0  0.23566758734404916  0.19304342166460478  0.47182141430275265  Uiso  ?  Ce
O1  1.0  0.21561384628996655  0.1834462926609793  0.4377640204191131  Uiso  ?  O
O1  1.0  0.2182190099388911  0.17836460200414614  0.5024431211611827  Uiso  ?  O
O1  1.0  0.2026336584910136  0.20332285927381427  0.46990588973670977  Uiso  ?  O
Ce1  1.0  0.2388932539380478  0.19401911975080152  0.5333775314491221  Uiso  ?  Ce
Ce1  1.0  0.183154332997193  0.1943730165021231  0.564199499191006  Uiso  ?  Ce
Ce1  1.0  0.18247359371767607  0.19468785195624166  0.5005447309976724  Uiso  ?  Ce
Ce1  1.0  0.19786990614274236  0.24523810249746328  0.5320579270390664  Uiso  ?  Ce
O1  1.0  0.19796457794089364  0.2045954513084113  0.5331379579018458  Uiso  ?  O
O1  1.0  0.18307971967616465  0.2320645111841075  0.5026640766025264  Uiso  ?  O
O1  1.0  0.18179362385362266  0.23263408317007592  0.5651477463554178  Uiso  ?  O
O1  1.0  0.16382917022616447  0.18206450533470547  0.5313311145716363  Uiso  ?  O
Ce1  1.0  0.19812956641966706  0.24248029096965407  0.598263661317333  Uiso  ?  Ce
O1  1.0  0.16535023025158538  0.2587454782646967  0.5976471127872981  Uiso  ?  O
Ce1  1.0  0.7986969277132135  0.24631328951115486  0.13124840141881935  Uiso  ?  Ce
O1  1.0  0.7596169820117326  0.25834449465096515  0.1295328157641531  Uiso  ?  O
Ce1  1.0  0.726840278102574  0.19487308769221962  0.1301029440868534  Uiso  ?  Ce
O1  1.0  0.7245477930930562  0.23168146798030212  0.1324032062737557  Uiso  ?  O
O1  1.0  0.6879420807112627  0.20702125974556435  0.12843075732299536  Uiso  ?  O
Ce1  1.0  0.7412124535651594  0.24785088820431583  0.15916496424138124  Uiso  ?  Ce
Ce1  1.0  0.6907676975727701  0.24560352142290803  0.19150917895563463  Uiso  ?  Ce
Ce1  1.0  0.688864256586673  0.24371197736003428  0.1253782123084595  Uiso  ?  Ce
O1  1.0  0.7052727324236017  0.2590516130935126  0.16060791400490154  Uiso  ?  O
O1  1.0  0.6734846687583576  0.23404817825963298  0.1576563745747767  Uiso  ?  O
O1  1.0  0.6538110812239326  0.2575652392060388  0.12875711825885405  Uiso  ?  O
O1  1.0  0.6526161195544646  0.2603717054766026  0.19181292297834684  Uiso  ?  O
O1  1.0  0.6547101073394846  0.1812854319810348  0.1272736464740784  Uiso  ?  O
Ce1  1.0  0.6737779585054233  0.1921704937947411  0.15922913843663208  Uiso  ?  Ce
Ce1  1.0  0.6169702854389131  0.19322588628827303  0.19290110331262775  Uiso  ?  Ce
Ce1  1.0  0.6171079381031553  0.19507712912935982  0.12965562367188002  Uiso  ?  Ce
Ce1  1.0  0.6359104371150573  0.24767688135875948  0.16110779822995638  Uiso  ?  Ce
O1  1.0  0.6358390114452543  0.20662563415536517  0.16294350211225347  Uiso  ?  O
O1  1.0  0.6177241221749162  0.23508221821126032  0.12980931194073186  Uiso  ?  O
O1  1.0  0.6185357950639121  0.23265387780653726  0.1922078694138351  Uiso  ?  O
O1  1.0  0.5993995774481536  0.26037967855048855  0.16193892512412314  Uiso  ?  O
O1  1.0  0.5968281247758812  0.18058860993299714  0.15862029397709043  Uiso  ?  O
O1  1.0  0.5801998389712913  0.20926345711520628  0.12795932831117843  Uiso  ?  O
O1  1.0  0.5805319076981639  0.207690992686974  0.1923797226663892  Uiso  ?  O
O1  1.0  0.5631352562249085  0.233574702466621  0.15743819179705906  Uiso  ?  O
Ce1  1.0  0.634471614854513  0.24667799582116218  0.22429299472588873  Uiso  ?  Ce
Ce1  1.0  0.5789205169818954  0.2423280420209114  0.2531443028919874  Uiso  ?  Ce
Ce1  1.0  0.5783332413849811  0.24370979435152534  0.18952181101463536  Uiso  ?  Ce
O1  1.0  0.5974317852107324  0.2545939360625385  0.22285780609715342  Uiso  ?  O
O1  1.0  0.5616785182360172  0.22811895136824673  0.22246449569567173  Uiso  ?  O
O1  1.0  0.5443654540300816  0.25922196265743813  0.19165070973418968  Uiso  ?  O
O1  1.0  0.5414739331954443  0.2564180340556073  0.2535245151203992  Uiso  ?  O
Ce1  1.0  0.5657346130166828  0.19299607720654874  0.16186666397897403  Uiso  ?  Ce
O1  1.0  0.5435620154882319  0.18181660376277814  0.13069098369490506  Uiso  ?  O
O1  1.0  0.547755123257972  0.1800045056596389  0.18654098924779758  Uiso  ?  O
O1  1.0  0.523909392159471  0.20530075969052872  0.1619273701857614  Uiso  ?  O
O1  1.0  0.4934189421674447  0.18029559995487454  0.15536295122005725  Uiso  ?  O
Ce1  1.0  0.562814890826139  0.19381901565224746  0.22249626105526643  Uiso  ?  Ce
Ce1  1.0  0.5079474734252819  0.19313325378114293  0.2521724378826902  Uiso  ?  Ce
Ce1  1.0  0.5096172910142364  0.19431935438762546  0.1911304010127113  Uiso  ?  Ce
Ce1  1.0  0.5286591668793875  0.24684188955729378  0.22043734273787716  Uiso  ?  Ce
O1  1.0  0.5258117147065112  0.2073082965511113  0.2204692584366647  Uiso  ?  O
O1  1.0  0.50625839690719  0.2307282359875779  0.19104300430123597  Uiso  ?  O
O1  1.0  0.5077741092221523  0.23139733468021742  0.25398647132301666  Uiso  ?  O
O1  1.0  0.48785260098235944  0.2573992057379556  0.22325706362301803  Uiso  ?  O
O1  1.0  0.49055911481251296  0.18084792509367417  0.22066706894164587  Uiso  ?  O
O1  1.0  0.47597544959125354  0.2074687411360321  0.18995885179827296  Uiso  ?  O
O1  1.0  0.47024929824056066  0.20517891600419225  0.25304553858538953  Uiso  ?  O
O1  1.0  0.45468190249034596  0.23262131252542184  0.22338791140495673  Uiso  ?  O
Ce1  1.0  0.5274267091269187  0.24409477508199903  0.28727833379568407  Uiso  ?  Ce
Ce1  1.0  0.4725436946095478  0.2443953539727221  0.31324811001770414  Uiso  ?  Ce
Ce1  1.0  0.47293909301924913  0.24694968819338814  0.25555405766629513  Uiso  ?  Ce
O1  1.0  0.49330510316785786  0.25465121206253527  0.2827637031281593  Uiso  ?  O
O1  1.0  0.4528490176213338  0.2327379538319136  0.2851603286146798  Uiso  ?  O
O1  1.0  0.43428346836825027  0.2586319160114024  0.25230431434987194  Uiso  ?  O
O1  1.0  0.43399026014452946  0.2552980870579958  0.316585968939844  Uiso  ?  O
Ce1  1.0  0.4540984020845261  0.1926034370511127  0.22223517497679374  Uiso  ?  Ce
O1  1.0  0.4357315035582483  0.18031378372630252  0.19034961133847023  Uiso  ?  O
O1  1.0  0.4382088249080806  0.18685936824353508  0.25454507601754506  Uiso  ?  O
O1  1.0  0.42077123049116427  0.20296442177413979  0.22236803590878523  Uiso  ?  O
O1  1.0  0.3807928158125809  0.18015600444779  0.22347490412350837  Uiso  ?  O
Ce1  1.0  0.4530660555171463  0.19331242563281556  0.2831032433731328  Uiso  ?  Ce
Ce1  1.0  0.4016099224803406  0.19542839371466666  0.3151244508610985  Uiso  ?  Ce
Ce1  1.0  0.39823563293965253  0.19252526451033392  0.2541752996384258  Uiso  ?  Ce
Ce1  1.0  0.41780096247347237  0.24548549568042774  0.28373697759288147  Uiso  ?  Ce
O1  1.0  0.41580465626369956  0.20825565071592267  0.28189441717441444  Uiso  ?  O
O1  1.0  0.4013401302361852  0.2306700791389849  0.2517826840976418  Uiso  ?  O
O1  1.0  0.39922462962946725  0.22793255702763443  0.3139824447382928  Uiso  ?  O
O1  1.0  0.3803930330844903  0.2588078818269563  0.2826894347243817  Uiso  ?  O
O1  1.0  0.38159194066738844  0.18286305859928012  0.281807690827101  Uiso  ?  O
O1  1.0  0.365146679505277  0.20538658328922563  0.25038949771825975  Uiso  ?  O
O1  1.0  0.36579617394192465  0.20445387407209556  0.3177795432757582  Uiso  ?  O
O1  1.0  0.34547660702048777  0.22745653644497127  0.28670971300223086  Uiso  ?  O
Ce1  1.0  0.418861715395245  0.2447218032200164  0.3469634031221976  Uiso  ?  Ce
Ce1  1.0  0.36280804050084725  0.24636797580987932  0.3780738171086965  Uiso  ?  Ce
Ce1  1.0  0.36455339283020005  0.24553625843680413  0.31680846500356463  Uiso  ?  Ce
O1  1.0  0.38237255501706  0.2598442560455196  0.3462192717281386  Uiso  ?  O
O1  1.0  0.34426546613601244  0.2317444499815517  0.3479363398813272  Uiso  ?  O
O1  1.0  0.32854305242248316  0.2570528432271968  0.31442691563157565  Uiso  ?  O
O1  1.0  0.3269225931367948  0.259431660046597  0.37666619208374535  Uiso  ?  O
Ce1  1.0  0.34516860091813834  0.1910143827180308  0.2844893409994486  Uiso  ?  Ce
O1  1.0  0.32672446726620485  0.18224307207586785  0.25135393314586  Uiso  ?  O
O1  1.0  0.32570110245327366  0.1826980440058066  0.31432378582815473  Uiso  ?  O
O1  1.0  0.3088995980539389  0.2052332110248582  0.28350865915991225  Uiso  ?  O
O1  1.0  0.27276810334072166  0.1839672524308817  0.28642881763188277  Uiso  ?  O
Ce1  1.0  0.34471740803420153  0.19466464280648663  0.3470322549106234  Uiso  ?  Ce
Ce1  1.0  0.28902633264628996  0.1925021991266145  0.3773778951143769  Uiso  ?  Ce
Ce1  1.0  0.28968057613716935  0.1916813872290349  0.3152494833278588  Uiso  ?  Ce
Ce1  1.0  0.3103524616787095  0.24663058589236633  0.34767275916246043  Uiso  ?  Ce
O1  1.0  0.3093250003394259  0.20645450772931256  0.3464618193552346  Uiso  ?  O
O1  1.0  0.2894127558558304  0.2321878615561773  0.3156603375360226  Uiso  ?  O
O1  1.0  0.29021402561463433  0.23482086094005725  0.37873540203127104  Uiso  ?  O
O1  1.0  0.2700184065843376  0.25678139844519204  0.34809711232125634  Uiso  ?  O
O1  1.0  0.2722796697702805  0.18157033733792552  0.3448634187279914  Uiso  ?  O
O1  1.0  0.25701685807907265  0.20594069073248703  0.31656140144321143  Uiso  ?  O
O1  1.0  0.25164301420477364  0.20899214314368045  0.37847385348278917  Uiso  ?  O
O1  1.0  0.23549738097755776  0.23297689815647324  0.34614122407172065  Uiso  ?  O
Ce1  1.0  0.30689145242430604  0.24536600130985045  0.4063532761499755  Uiso  ?  Ce
Ce1  1.0  0.2546387567855187  0.24518521559816547  0.4372236467734595  Uiso  ?  Ce
Ce1  1.0  0.25277939285175693  0.24823827035770088  0.3790599715776871  Uiso  ?  Ce
O1  1.0  0.2737603530813773  0.2592816151581403  0.4058849516528168  Uiso  ?  O
O1  1.0  0.2383246911001189  0.22943563681545362  0.4091884351024943  Uiso  ?  O
O1  1.0  0.21910948553387308  0.2591288835715313  0.3783501558295233  Uiso  ?  O
O1  1.0  0.21695314373942803  0.25975022256276614  0.4402070852467229  Uiso  ?  O
Ce1  1.0  0.23581484563184768  0.1959260340265244  0.34420762811366956  Uiso  ?  Ce
O1  1.0  0.2200645754299105  0.18249622443913185  0.31687469313689587  Uiso  ?  O
O1  1.0  0.21764242735925057  0.1827871326037911  0.3782395875720865  Uiso  ?  O
O1  1.0  0.19774128829261317  0.20851180793294596  0.3465017697887815  Uiso  ?  O
O1  1.0  0.1661552471361449  0.18264424655466985  0.3447285421997326  Uiso  ?  O
Ce1  1.0  0.23403289158442472  0.194399352197056  0.4087976988205617  Uiso  ?  Ce
Ce1  1.0  0.18431195633690164  0.19580766364981386  0.44157084083769405  Uiso  ?  Ce
Ce1  1.0  0.1827984588274892  0.194763590560371  0.37644788365597787  Uiso  ?  Ce
Ce1  1.0  0.20002747425518988  0.24760238622004885  0.4094369926801701  Uiso  ?  Ce
O1  1.0  0.20120000218905473  0.20618140023249082  0.40751188989339654  Uiso  ?  O
O1  1.0  0.1817509461421241  0.2333398710495024  0.37596834501815957  Uiso  ?  O
O1  1.0  0.18186508419333305  0.23295112313360444  0.436421426296751  Uiso  ?  O
Ce1  1.0  0.19847948870764096  0.246987841472266  0.47168713287223457  Uiso  ?  Ce
Ce1  1.0  0.5811242976100149  0.24544296054129439  0.12946961314425448  Uiso  ?  Ce
O1  1.0  0.5466918558976366  0.2574848510648367  0.12440623089401279  Uiso  ?  O
Ce1  1.0  0.5075757114405954  0.19684022714030425  0.12733023845329403  Uiso  ?  Ce
O1  1.0  0.5047916107107264  0.23238149919207354  0.12819941554627914  Uiso  ?  O
O1  1.0  0.47321266092714537  0.2087786793372162  0.13023528514487573  Uiso  ?  O
Ce1  1.0  0.526215014458443  0.24656944109328582  0.15900339177549383  Uiso  ?  Ce
Ce1  1.0  0.4758680550844357  0.24407235226589102  0.1893516987462001  Uiso  ?  Ce
Ce1  1.0  0.47085589870294525  0.24630893928807146  0.1296997458875257  Uiso  ?  Ce
O1  1.0  0.4888919987259155  0.2563565109689282  0.16109904000830538  Uiso  ?  O
O1  1.0  0.4526789709573386  0.2343394178867811  0.159656866184547  Uiso  ?  O
O1  1.0  0.4373475855106027  0.2579721097477077  0.12844628964097612  Uiso  ?  O
O1  1.0  0.4421134335438232  0.25833265416951806  0.18812174774300336  Uiso  ?  O
O1  1.0  0.43494123738361956  0.1804385282008389  0.12781389554903017  Uiso  ?  O
Ce1  1.0  0.45577158647607674  0.19287852278224366  0.1615431912948458  Uiso  ?  Ce
Ce1  1.0  0.4032430354470395  0.19465321579165834  0.18795537634590884  Uiso  ?  Ce
Ce1  1.0  0.3997648085626843  0.194529391707629  0.1313631832395769  Uiso  ?  Ce
Ce1  1.0  0.4153272419242704  0.2464547249310686  0.15977120820683757  Uiso  ?  Ce
O1  1.0  0.4194076040805575  0.206203420618109  0.15831170647310377  Uiso  ?  O
O1  1.0  0.4035457882600645  0.2320723787709906  0.1284684377816086  Uiso  ?  O
O1  1.0  0.4018707523151611  0.23046208796592935  0.19104803067737944  Uiso  ?  O
O1  1.0  0.3789264475944297  0.2584432219456883  0.15977440081433114  Uiso  ?  O
O1  1.0  0.3825674864327011  0.18295506179346677  0.16190194787645806  Uiso  ?  O
O1  1.0  0.36071825257969653  0.20757661609516972  0.12497571813064634  Uiso  ?  O
O1  1.0  0.3653571635443774  0.20578685243867706  0.19093229027539274  Uiso  ?  O
O1  1.0  0.34682128585811817  0.23140239241591262  0.15740595333576646  Uiso  ?  O
Ce1  1.0  0.41881636583482645  0.24345397001066743  0.22140860727238082  Uiso  ?  Ce
Ce1  1.0  0.36385703081023785  0.24419898567805873  0.2530504114804571  Uiso  ?  Ce
Ce1  1.0  0.3674314990731698  0.24582195348724253  0.1909576049471123  Uiso  ?  Ce
O1  1.0  0.3826382700168042  0.2574592595039146  0.22209686185604227  Uiso  ?  O
O1  1.0  0.34686533321763696  0.23126847615655327  0.22105586995079582  Uiso  ?  O
O1  1.0  0.3308230146963141  0.2577075426269259  0.18795474433923245  Uiso  ?  O
O1  1.0  0.32740859267679195  0.2583939243512274  0.2528880739351291  Uiso  ?  O
Ce1  1.0  0.34517303513791103  0.19420226873829705  0.1596182605480808  Uiso  ?  Ce
O1  1.0  0.3312225618647028  0.1821578117510824  0.12807275765453088  Uiso  ?  O
O1  1.0  0.32816189754771435  0.18183207307766816  0.1884730329509819  Uiso  ?  O
O1  1.0  0.3098814845632365  0.20816716085877363  0.16299928268358727  Uiso  ?  O
O1  1.0  0.27436167624260815  0.18077629289202846  0.1605099525730829  Uiso  ?  O
Ce1  1.0  0.3492393595041484  0.19536181117052834  0.22051049009300497  Uiso  ?  Ce
Ce1  1.0  0.2895806105704059  0.19429535092615385  0.25198508062218833  Uiso  ?  Ce
Ce1  1.0  0.29293464104051536  0.19798217709717736  0.1867771900781452  Uiso  ?  Ce
Ce1  1.0  0.3127222008151406  0.24459902289173432  0.22284902882510815  Uiso  ?  Ce
O1  1.0  0.31037337171681956  0.2063431675809593  0.21883598125040538  Uiso  ?  O
O1  1.0  0.2936940782595767  0.23547411175351918  0.19123033824468758  Uiso  ?  O
O1  1.0  0.29063485890616586  0.23183298936054222  0.25282807860015943  Uiso  ?  O
O1  1.0  0.27363214964642085  0.2599536700813132  0.2215167773189269  Uiso  ?  O
O1  1.0  0.2751879346859208  0.18004466002456096  0.21950871522254253  Uiso  ?  O
O1  1.0  0.25524911791527244  0.2042484617549652  0.19039936312948502  Uiso  ?  O
O1  1.0  0.2558873994131611  0.20646982999559152  0.2517200442596383  Uiso  ?  O
O1  1.0  0.23633390623954145  0.23188012308755143  0.2203674877446846  Uiso  ?  O
Ce1  1.0  0.3099921142343032  0.24502129400033165  0.28620688088804913  Uiso  ?  Ce
Ce1  1.0  0.2580105288105139  0.24891239800807824  0.31541655610230784  Uiso  ?  Ce
Ce1  1.0  0.25766210850773913  0.24526730661382387  0.25015825287406385  Uiso  ?  Ce
O1  1.0  0.27165852083361275  0.25580650088412415  0.28341931699802303  Uiso  ?  O
O1  1.0  0.2371016858231787  0.23329064413429412  0.2842375586222513  Uiso  ?  O
O1  1.0  0.22127981033395358  0.25757648652025833  0.25202338311569056  Uiso  ?  O
O1  1.0  0.21894599174222415  0.25814438890503033  0.3131835027140958  Uiso  ?  O
Ce1  1.0  0.2376358162805272  0.19486778398339402  0.22046887419738873  Uiso  ?  Ce
O1  1.0  0.21910294220707363  0.18017263167144792  0.19009574300338355  Uiso  ?  O
O1  1.0  0.219947836795082  0.17977247705406965  0.24991396419876766  Uiso  ?  O
O1  1.0  0.19904437300490935  0.20867248956725065  0.22210078578453354  Uiso  ?  O
O1  1.0  0.16524310930616973  0.18203261979401653  0.21835831966192257  Uiso  ?  O
Ce1  1.0  0.2386761567253235  0.19365290980971522  0.2839078573232616  Uiso  ?  Ce
Ce1  1.0  0.1825194017732013  0.19458879844427168  0.31558704098222845  Uiso  ?  Ce
Ce1  1.0  0.1826604555639701  0.19535586892539922  0.2531455124576359  Uiso  ?  Ce
Ce1  1.0  0.2034083143169338  0.24638208839890166  0.28504771277551394  Uiso  ?  Ce
O1  1.0  0.20174780328973568  0.20502432861887773  0.2842791045033246  Uiso  ?  O
O1  1.0  0.18433027577169814  0.2320235629007029  0.25049237921761724  Uiso  ?  O
O1  1.0  0.18195216954457233  0.23347123663348385  0.3154299554226614  Uiso  ?  O
O1  1.0  0.16502044613034872  0.26121583997082176  0.28526836262716454  Uiso  ?  O
Ce1  1.0  0.2007923289660863  0.246746765251896  0.3458831517035725  Uiso  ?  Ce
O1  1.0  0.16650108341844666  0.2582437286506641  0.34555288374307774  Uiso  ?  O
Ce1  1.0  0.3661182903677656  0.24184124290157755  0.12625381060035046  Uiso  ?  Ce
O1  1.0  0.3264066933749134  0.25637198582617216  0.1273253458261617  Uiso  ?  O
Ce1  1.0  0.2916678320403078  0.19448120710373795  0.12892280427441494  Uiso  ?  Ce
O1  1.0  0.293218410091086  0.22980944108952123  0.12900904187099832  Uiso  ?  O
O1  1.0  0.25636761540177394  0.20923787125032073  0.1274833671946867  Uiso  ?  O
Ce1  1.0  0.31149087415180854  0.2450496420559628  0.15790431962134674  Uiso  ?  Ce
Ce1  1.0  0.2534115533873525  0.245248826000355  0.18955221104834177  Uiso  ?  Ce
Ce1  1.0  0.2575613629309697  0.24546961934349487  0.1274738273373657  Uiso  ?  Ce
O1  1.0  0.2764040491013244  0.25814251460523274  0.15498333552571825  Uiso  ?  O
O1  1.0  0.2377095914431142  0.2278196033982179  0.15570461013825007  Uiso  ?  O
O1  1.0  0.2192307848006752  0.25878221883690555  0.1255353709575221  Uiso  ?  O
O1  1.0  0.2180176058458245  0.25671842939046574  0.1902444573362392  Uiso  ?  O
O1  1.0  0.2193199769906055  0.18337985468675394  0.1278176517602854  Uiso  ?  O
Ce1  1.0  0.2382547492965916  0.1923636405800532  0.1580134382329654  Uiso  ?  Ce
Ce1  1.0  0.18192490781784085  0.1930851547525924  0.19039495949769888  Uiso  ?  Ce
Ce1  1.0  0.18706830831852078  0.19389554122118716  0.12718626142891282  Uiso  ?  Ce
Ce1  1.0  0.19780893314690018  0.24806119299434282  0.15799277172016565  Uiso  ?  Ce
O1  1.0  0.19978841931285946  0.20860320121541842  0.15786630157261833  Uiso  ?  O
O1  1.0  0.1838581921080873  0.23181236792152898  0.1258082418600787  Uiso  ?  O
O1  1.0  0.18273458985256338  0.23228407534544293  0.18923162913525057  Uiso  ?  O
O1  1.0  0.16673721100716246  0.26111930178936904  0.16068236385096848  Uiso  ?  O
O1  1.0  0.16460632071767253  0.17856838802940428  0.1570406331424464  Uiso  ?  O
Ce1  1.0  0.20312121396948182  0.2457288178873306  0.22003459576339876  Uiso  ?  Ce
O1  1.0  0.16744266474407846  0.2556954584083381  0.22247215746246995  Uiso  ?  O
