data_global
_audit_creation_method 'Generated by Python Script'

_symmetry_space_group_name_H-M 'P 1'
_symmetry_Int_Tables_number 1
_symmetry_cell_setting triclinic
loop_
_symmetry_equiv_pos_as_xyz
  'x, y, z'

_cell_length_a    72.9598136536076
_cell_length_b    72.9598136536076
_cell_length_c    72.9598136536076
_cell_angle_alpha 90.0
_cell_angle_beta  90.0
_cell_angle_gamma 90.0

loop_
_atom_site_label
_atom_site_occupancy
_atom_site_fract_x
_atom_site_fract_y
_atom_site_fract_z
_atom_site_adp_type
_atom_site_U_iso_or_equiv
_atom_site_type_symbol
Pt1  1.0  0.5135810479411484  0.44600318081326507  0.5184204244600956  Uiso  ?  Pt
Pt1  1.0  0.46603504393817907  0.4434199727982792  0.5617064687273707  Uiso  ?  Pt
Pt1  1.0  0.4829207970095554  0.47374755104514865  0.5469942093539658  Uiso  ?  Pt
Pt1  1.0  0.4793765142309931  0.44238268780424145  0.5270385318712206  Uiso  ?  Pt
Pt1  1.0  0.4458973318350922  0.4724756802406719  0.5577548564994972  Uiso  ?  Pt
Pt1  1.0  0.4435935382569677  0.4422982653849052  0.5375708323099933  Uiso  ?  Pt
Pt1  1.0  0.4040891218787776  0.4431959493631778  0.5460785758029378  Uiso  ?  Pt
Pt1  1.0  0.48811921544283576  0.443995832649741  0.4910832914392166  Uiso  ?  Pt
Pt1  1.0  0.5015225173387873  0.47510049356380707  0.47300996735279277  Uiso  ?  Pt
Pt1  1.0  0.49809812733048553  0.44310016002998426  0.45512225091478853  Uiso  ?  Pt
Pt1  1.0  0.4953261481021113  0.4748567577557172  0.5115775486509658  Uiso  ?  Pt
Pt1  1.0  0.455199872486362  0.47408483406164703  0.5193034358438389  Uiso  ?  Pt
Pt1  1.0  0.46788709057583056  0.47430763084857674  0.48294204923575207  Uiso  ?  Pt
Pt1  1.0  0.46221570371553966  0.44446281716015534  0.46412271459719506  Uiso  ?  Pt
Pt1  1.0  0.45168939211632664  0.44487545765397196  0.5013384616581962  Uiso  ?  Pt
Pt1  1.0  0.41420093045649126  0.44648315978627684  0.5108892397228953  Uiso  ?  Pt
Pt1  1.0  0.4307294467761807  0.4728862358695032  0.49243229096431956  Uiso  ?  Pt
Pt1  1.0  0.4245081992194625  0.44185348067520047  0.47298204198440535  Uiso  ?  Pt
Pt1  1.0  0.41969893582807394  0.47524248872355457  0.5311974620766323  Uiso  ?  Pt
Pt1  1.0  0.39242722606875363  0.4744509768877269  0.5026666973305812  Uiso  ?  Pt
Pt1  1.0  0.38476222253990705  0.44203495487605254  0.4814874747907016  Uiso  ?  Pt
Pt1  1.0  0.47653323512122503  0.474427353747066  0.4478120218140676  Uiso  ?  Pt
Pt1  1.0  0.4353577398054437  0.4434059924028535  0.4363992303019906  Uiso  ?  Pt
Pt1  1.0  0.4411456833088417  0.4733962507484863  0.45783980954191095  Uiso  ?  Pt
Pt1  1.0  0.40332585419518724  0.47241863744013085  0.4696338357339092  Uiso  ?  Pt
Pt1  1.0  0.47238489042978116  0.507008375607905  0.5060153568805135  Uiso  ?  Pt
Pt1  1.0  0.43634449874116976  0.5062100322126325  0.5165239259890747  Uiso  ?  Pt
Pt1  1.0  0.44591320626980363  0.5071145383515485  0.4805935397548802  Uiso  ?  Pt
Ce1  1.0  0.15437247525876976  0.37557296268478424  0.8088379048144333  Uiso  ?  Ce
O1  1.0  0.17385509154095793  0.3944310949340764  0.8277352204329422  Uiso  ?  O
O1  1.0  0.17517030242915752  0.4327256684821962  0.8259066989080339  Uiso  ?  O
O1  1.0  0.1751609989761644  0.3966023952981426  0.7906596271985806  Uiso  ?  O
O1  1.0  0.1372266162444901  0.43257878357978796  0.7905015516973587  Uiso  ?  O
O1  1.0  0.17158173543842756  0.4308625054280109  0.789734663765192  Uiso  ?  O
Ce1  1.0  0.15788627622931004  0.3759794688543108  0.7335202394465667  Uiso  ?  Ce
Ce1  1.0  0.15468748009167083  0.41197117189363763  0.76989494393481  Uiso  ?  Ce
O1  1.0  0.13752105233391854  0.395575812275266  0.7528084220630856  Uiso  ?  O
O1  1.0  0.1757693182531481  0.394972033982939  0.7524714454831565  Uiso  ?  O
O1  1.0  0.17651640749699368  0.429043554351272  0.7531973438892526  Uiso  ?  O
O1  1.0  0.17827080655731553  0.39509171580335456  0.7152538899965242  Uiso  ?  O
O1  1.0  0.17559140572201853  0.43397408633963463  0.718377559403594  Uiso  ?  O
Ce1  1.0  0.15726595736795815  0.3732614250448649  0.6611732816623812  Uiso  ?  Ce
Ce1  1.0  0.15600814087999382  0.41252950394009763  0.6960474399741238  Uiso  ?  Ce
O1  1.0  0.17184771536339974  0.3948137748380803  0.6793518423479886  Uiso  ?  O
O1  1.0  0.1375385291625042  0.4312945151888173  0.6783447953980417  Uiso  ?  O
O1  1.0  0.17488387030319757  0.43085878814720535  0.676894520010627  Uiso  ?  O
O1  1.0  0.17637217461816646  0.3958923086457353  0.6406006235109223  Uiso  ?  O
O1  1.0  0.1732804009833916  0.43165780981629465  0.6426946937193468  Uiso  ?  O
Ce1  1.0  0.15595306396113412  0.3764394992920235  0.5861126256419005  Uiso  ?  Ce
Ce1  1.0  0.15548392506080808  0.4142435240925478  0.6221565338832817  Uiso  ?  Ce
O1  1.0  0.17513266752695889  0.39397535457471533  0.6050017745946265  Uiso  ?  O
O1  1.0  0.13717325391000007  0.4326353304293892  0.6053986669328848  Uiso  ?  O
O1  1.0  0.17376647490744665  0.4307326721330645  0.6058526507184151  Uiso  ?  O
O1  1.0  0.17136857825505242  0.39405184976031743  0.566245360943713  Uiso  ?  O
O1  1.0  0.17432603568450677  0.42991309157129926  0.5661588723467351  Uiso  ?  O
Ce1  1.0  0.1523162547471594  0.37589836097413826  0.5125220547683149  Uiso  ?  Ce
Ce1  1.0  0.15700554711309933  0.4117028767475504  0.5469332063938805  Uiso  ?  Ce
O1  1.0  0.17395348057811952  0.3963874034859138  0.5320302775715614  Uiso  ?  O
O1  1.0  0.13841159050962087  0.43104712308027254  0.5310940409811542  Uiso  ?  O
O1  1.0  0.17478164730465598  0.43089684511744725  0.529534965681995  Uiso  ?  O
O1  1.0  0.17483907251470648  0.39480681510770466  0.4922601716980724  Uiso  ?  O
O1  1.0  0.13739812700797052  0.4320145197277786  0.49183412543578464  Uiso  ?  O
O1  1.0  0.1732036834561167  0.43160077230834404  0.49181269645592723  Uiso  ?  O
Ce1  1.0  0.153732265483116  0.3756086323706903  0.43934106223226876  Uiso  ?  Ce
Ce1  1.0  0.15704427265516707  0.41174243078657075  0.47507741500240763  Uiso  ?  Ce
O1  1.0  0.175191562868773  0.39372642763868637  0.45753461152604863  Uiso  ?  O
O1  1.0  0.13802747871134283  0.43209172275816743  0.454976898562524  Uiso  ?  O
O1  1.0  0.1744685529660149  0.43161645025846307  0.4576341963607027  Uiso  ?  O
O1  1.0  0.1379726112356517  0.39458777027693076  0.41930541761775314  Uiso  ?  O
O1  1.0  0.1736626057439822  0.3959338684576151  0.4179392979057909  Uiso  ?  O
O1  1.0  0.1379319990661132  0.431446683221931  0.41937510325159444  Uiso  ?  O
O1  1.0  0.17502989839459965  0.432769700165982  0.41917015105373023  Uiso  ?  O
Ce1  1.0  0.156696191897928  0.3764176943496838  0.3631998689056875  Uiso  ?  Ce
Ce1  1.0  0.1551863217435615  0.41231381117147453  0.4030940688450179  Uiso  ?  Ce
O1  1.0  0.13721894034061313  0.3934039880119135  0.381065349888417  Uiso  ?  O
O1  1.0  0.17298206786240117  0.39424199616680616  0.38376194095241295  Uiso  ?  O
O1  1.0  0.1745274106445118  0.43298188310533314  0.38376359371867613  Uiso  ?  O
O1  1.0  0.1388146579140769  0.39606642077651505  0.3431685006925492  Uiso  ?  O
O1  1.0  0.17292470061429913  0.39697984457451246  0.34493073757681797  Uiso  ?  O
O1  1.0  0.13716869588900377  0.4337909585560648  0.346211098854761  Uiso  ?  O
O1  1.0  0.17431636949616522  0.4328500508380136  0.34402458859009577  Uiso  ?  O
Ce1  1.0  0.15429664683122796  0.37375690310256066  0.2877241001108318  Uiso  ?  Ce
Ce1  1.0  0.15497943339591488  0.4132616826257964  0.3234640310380939  Uiso  ?  Ce
O1  1.0  0.17648421943802095  0.3952184265125338  0.308386036846662  Uiso  ?  O
O1  1.0  0.13718444105736893  0.4314615047851259  0.3099988781729094  Uiso  ?  O
O1  1.0  0.17347011935563686  0.4323592900035493  0.3082899240497039  Uiso  ?  O
O1  1.0  0.1751141695683678  0.3973175695323354  0.2701486237348201  Uiso  ?  O
O1  1.0  0.13970683500264167  0.432497833978177  0.2700619407793432  Uiso  ?  O
O1  1.0  0.1752585558654664  0.43083234832599143  0.27141819052291855  Uiso  ?  O
Ce1  1.0  0.15570618239625558  0.37608424635419585  0.21371288533943794  Uiso  ?  Ce
Ce1  1.0  0.15634207574883033  0.4143690691896979  0.25007397248448165  Uiso  ?  Ce
O1  1.0  0.13813908174112977  0.39489303988767976  0.23097635576914158  Uiso  ?  O
O1  1.0  0.17376450632749169  0.395152547998002  0.23417686746111874  Uiso  ?  O
O1  1.0  0.13743494312652133  0.4327134215763819  0.23274867758629264  Uiso  ?  O
O1  1.0  0.17488937460153656  0.43168299497885815  0.2306480702129507  Uiso  ?  O
O1  1.0  0.1392437135982821  0.3953271541524368  0.1970453856095482  Uiso  ?  O
O1  1.0  0.1732778236413571  0.39508946528061395  0.19779434999785298  Uiso  ?  O
O1  1.0  0.13742770476772034  0.4306722439998045  0.19632742074037163  Uiso  ?  O
O1  1.0  0.1746207938650869  0.42956485959209245  0.19548563448902148  Uiso  ?  O
Ce1  1.0  0.15646978438251627  0.4130784512076219  0.17783322158679055  Uiso  ?  Ce
Ce1  1.0  0.19280544096700739  0.41156332427469977  0.8085553066836625  Uiso  ?  Ce
Ce1  1.0  0.22770028934574504  0.3775052328799092  0.8081218754901741  Uiso  ?  Ce
O1  1.0  0.20953627991716284  0.39576110363240363  0.8259033525128959  Uiso  ?  O
O1  1.0  0.2492726366942221  0.39522969304358657  0.8262677220103976  Uiso  ?  O
O1  1.0  0.209332174469056  0.4333632184065458  0.8257642411998766  Uiso  ?  O
O1  1.0  0.24728172947520052  0.433257677799597  0.8242899098575415  Uiso  ?  O
O1  1.0  0.2116316552737598  0.3946853436103608  0.7884177772773936  Uiso  ?  O
O1  1.0  0.24851913662517294  0.39656191946003294  0.7908649598627995  Uiso  ?  O
O1  1.0  0.21186202709376842  0.43287013353145654  0.7884459140998197  Uiso  ?  O
O1  1.0  0.24628059262427868  0.4343606352484733  0.7908311137665546  Uiso  ?  O
Ce1  1.0  0.19409150348535045  0.37384070113412304  0.7705857880421435  Uiso  ?  Ce
Ce1  1.0  0.19204304860102034  0.4121291452550409  0.7327355263391369  Uiso  ?  Ce
Ce1  1.0  0.2318512910579231  0.3778379478831599  0.7337247957021231  Uiso  ?  Ce
Ce1  1.0  0.22932279568931183  0.4139562569890738  0.7711050681703533  Uiso  ?  Ce
O1  1.0  0.2085566845845462  0.39251636978901744  0.7512597691120789  Uiso  ?  O
O1  1.0  0.24898750816229084  0.39448486131567895  0.7509928879476996  Uiso  ?  O
O1  1.0  0.21295118205978614  0.43082668156270393  0.7522684060061663  Uiso  ?  O
O1  1.0  0.24690282735987895  0.43329547754244446  0.7517463020478509  Uiso  ?  O
O1  1.0  0.208395435043701  0.3943649483573138  0.7165017477842829  Uiso  ?  O
O1  1.0  0.24637530074016065  0.39349257998509746  0.7177539101769382  Uiso  ?  O
O1  1.0  0.20965688423666212  0.43096398778050554  0.7145372106178439  Uiso  ?  O
O1  1.0  0.2482278970817312  0.4313391828259458  0.7155023041351662  Uiso  ?  O
Ce1  1.0  0.19048599301299904  0.3790411844967758  0.6973182731911186  Uiso  ?  Ce
Ce1  1.0  0.1918758392589523  0.41164382260372107  0.6587759006854006  Uiso  ?  Ce
Ce1  1.0  0.231677025964704  0.37671016644048594  0.6632845921582318  Uiso  ?  Ce
Ce1  1.0  0.22941214191218215  0.4136929360603196  0.6963739648805952  Uiso  ?  Ce
O1  1.0  0.20972001126371342  0.3915276854497052  0.6809679627942823  Uiso  ?  O
O1  1.0  0.24845510570335563  0.39781980231238445  0.6789977822468816  Uiso  ?  O
O1  1.0  0.2139595024996238  0.43156653214432156  0.6772244296002491  Uiso  ?  O
O1  1.0  0.24606720143811595  0.43015178484042615  0.6783455410760052  Uiso  ?  O
O1  1.0  0.2116715424012292  0.3965344020194604  0.6416742008273815  Uiso  ?  O
O1  1.0  0.24946558587666884  0.3967673641222731  0.6418388157543494  Uiso  ?  O
O1  1.0  0.21216330528803687  0.43282202058744446  0.6395419865755008  Uiso  ?  O
O1  1.0  0.2490102698379561  0.42940089032829304  0.6401196851902939  Uiso  ?  O
Ce1  1.0  0.18955975126922542  0.3750778508290551  0.624272282442424  Uiso  ?  Ce
Ce1  1.0  0.19170683710142974  0.4109589362763439  0.5861513220675563  Uiso  ?  Ce
Ce1  1.0  0.23150324395216926  0.37541199323613206  0.5855510080136408  Uiso  ?  Ce
Ce1  1.0  0.22961185130683337  0.41383345607609695  0.6228147421951927  Uiso  ?  Ce
O1  1.0  0.21181376556734896  0.3953519318648566  0.6031963882921404  Uiso  ?  O
O1  1.0  0.24644414142210766  0.3932124599788554  0.6052878209720884  Uiso  ?  O
O1  1.0  0.21061874430049454  0.43007827553637434  0.6066653364522756  Uiso  ?  O
O1  1.0  0.2436386402289299  0.43150054958915135  0.6044181624672303  Uiso  ?  O
O1  1.0  0.21249202621083257  0.3945006372910594  0.5674577704392186  Uiso  ?  O
O1  1.0  0.24853223622951565  0.39358862679044204  0.5656084727158462  Uiso  ?  O
O1  1.0  0.20890684099298082  0.4337015546495313  0.5672303783045063  Uiso  ?  O
O1  1.0  0.24886391172034952  0.4316554609438766  0.5691328953373658  Uiso  ?  O
Ce1  1.0  0.19351118207438572  0.3768028599998722  0.5493699077608085  Uiso  ?  Ce
Ce1  1.0  0.19404674221615748  0.4126028380642003  0.510064898742875  Uiso  ?  Ce
Ce1  1.0  0.2292471843360662  0.3772729231698657  0.5105925319458657  Uiso  ?  Ce
Ce1  1.0  0.2283228367649019  0.4162708016044335  0.5528127356387043  Uiso  ?  Ce
O1  1.0  0.2077875549023756  0.39345691371812025  0.5298899676794092  Uiso  ?  O
O1  1.0  0.2485198613800223  0.3938501117262005  0.5335020047748593  Uiso  ?  O
O1  1.0  0.2100606352925258  0.4322980555863268  0.5323425655638341  Uiso  ?  O
O1  1.0  0.24989890144126073  0.43255488288758925  0.5299206866286202  Uiso  ?  O
O1  1.0  0.21097851849304194  0.39520640155484876  0.4938336934282871  Uiso  ?  O
O1  1.0  0.24960946793343558  0.3962439829808971  0.49527350386088537  Uiso  ?  O
O1  1.0  0.2093374121782177  0.43277114626606844  0.4933099526094471  Uiso  ?  O
O1  1.0  0.24763830918132249  0.4329735483869434  0.4943428685600966  Uiso  ?  O
Ce1  1.0  0.19257050213224647  0.3734948913374303  0.47451498833315414  Uiso  ?  Ce
Ce1  1.0  0.19308855720280324  0.41483712167146236  0.44074315686872845  Uiso  ?  Ce
Ce1  1.0  0.2298581474366916  0.3767435166777312  0.4400362570416448  Uiso  ?  Ce
Ce1  1.0  0.22963731502293713  0.41503389125641854  0.4738181327829455  Uiso  ?  Ce
O1  1.0  0.20906309759229985  0.3951369047002179  0.4566552589887138  Uiso  ?  O
O1  1.0  0.24739946824533088  0.3937525374373535  0.45519314858063087  Uiso  ?  O
O1  1.0  0.21175487817946353  0.43220957397292836  0.45532569788865107  Uiso  ?  O
O1  1.0  0.2478770214174229  0.4318311146096487  0.4561642276453303  Uiso  ?  O
O1  1.0  0.21224039827202204  0.3921372741560566  0.41957488083219246  Uiso  ?  O
O1  1.0  0.24799425366423314  0.3929122409013654  0.4191568415059376  Uiso  ?  O
O1  1.0  0.21026649983242215  0.43272776109611455  0.4210467833408082  Uiso  ?  O
O1  1.0  0.247241200440345  0.4289643389331539  0.4180795153583366  Uiso  ?  O
Ce1  1.0  0.19115439556506825  0.37617653244974797  0.39878699566701037  Uiso  ?  Ce
Ce1  1.0  0.19363350083128067  0.41366883474389543  0.36319733552441197  Uiso  ?  Ce
Ce1  1.0  0.22976198281146956  0.3768941534466619  0.3615064282671682  Uiso  ?  Ce
Ce1  1.0  0.22838013250439948  0.4160626341901509  0.40220001252545556  Uiso  ?  Ce
O1  1.0  0.21054159121445082  0.3974791969567604  0.3829893004230149  Uiso  ?  O
O1  1.0  0.2503920577455004  0.3934014263447442  0.38259424145234683  Uiso  ?  O
O1  1.0  0.21220116530766314  0.4288675201196569  0.3848378413064854  Uiso  ?  O
O1  1.0  0.24769963411622545  0.43270088628952286  0.38288356070494806  Uiso  ?  O
O1  1.0  0.21325853852746313  0.39495520651209953  0.3469506224965663  Uiso  ?  O
O1  1.0  0.2506975295830816  0.394468147414462  0.3421295321537134  Uiso  ?  O
O1  1.0  0.21231353625244276  0.43190040668873236  0.3429514223374506  Uiso  ?  O
O1  1.0  0.24802254122696793  0.4308006417721571  0.3442578205777134  Uiso  ?  O
Ce1  1.0  0.1919691385569844  0.37792440940200267  0.3244996858043744  Uiso  ?  Ce
Ce1  1.0  0.1907044424944703  0.41278812041448043  0.2899455239961256  Uiso  ?  Ce
Ce1  1.0  0.23220597559778305  0.37487291190641464  0.2892120294180999  Uiso  ?  Ce
Ce1  1.0  0.2319669475610675  0.41243241942597797  0.32579772252767764  Uiso  ?  Ce
O1  1.0  0.21139908843473665  0.39396094943869076  0.31064947472525745  Uiso  ?  O
O1  1.0  0.2486676673627927  0.3967184215824727  0.30838384828728826  Uiso  ?  O
O1  1.0  0.20909094713147777  0.4320442206933791  0.3051303505864077  Uiso  ?  O
O1  1.0  0.24607956173444148  0.43192596442368364  0.3096601276949668  Uiso  ?  O
O1  1.0  0.2100478617943466  0.3959375836034283  0.270838426614571  Uiso  ?  O
O1  1.0  0.2507656146853344  0.3953367482451496  0.27311670148290856  Uiso  ?  O
O1  1.0  0.2102145807288564  0.4334381701148138  0.2683861159870907  Uiso  ?  O
O1  1.0  0.24598664361936523  0.42901573682355626  0.2700971467217198  Uiso  ?  O
Ce1  1.0  0.1921364988999645  0.374204356494377  0.2526892716879328  Uiso  ?  Ce
Ce1  1.0  0.19262241422175266  0.4105587919553017  0.21546807611151542  Uiso  ?  Ce
Ce1  1.0  0.22697350108858005  0.37600790658103445  0.2159396957221537  Uiso  ?  Ce
Ce1  1.0  0.22913281486992623  0.41122328276468917  0.254979934645458  Uiso  ?  Ce
O1  1.0  0.20972496290816042  0.3921176914180108  0.23319396126807143  Uiso  ?  O
O1  1.0  0.24606696632788289  0.3947958983808126  0.23428683395981004  Uiso  ?  O
O1  1.0  0.2103916418258975  0.4322483392268463  0.2325027031680593  Uiso  ?  O
O1  1.0  0.2486505008788819  0.4302865962426955  0.23597481105370324  Uiso  ?  O
O1  1.0  0.21105232803360657  0.39386346376766407  0.19803929717010316  Uiso  ?  O
O1  1.0  0.248512032665381  0.39451877374794814  0.19797932483629388  Uiso  ?  O
O1  1.0  0.21231515911763812  0.4302469340165549  0.1955046823168082  Uiso  ?  O
O1  1.0  0.2490058626359559  0.4327395474806746  0.1980736711609573  Uiso  ?  O
Ce1  1.0  0.19407105601240976  0.37607880209286926  0.17799647449349504  Uiso  ?  Ce
Ce1  1.0  0.2272829383789167  0.41314351494911206  0.17741492521161176  Uiso  ?  Ce
Ce1  1.0  0.26724034978574146  0.41201968366994357  0.8091028999507162  Uiso  ?  Ce
Ce1  1.0  0.302298744868057  0.375376786186126  0.8066305420477282  Uiso  ?  Ce
O1  1.0  0.2831626953312777  0.39622663551264514  0.8253882846308302  Uiso  ?  O
O1  1.0  0.3225756507592852  0.39394404469656336  0.8293569340510553  Uiso  ?  O
O1  1.0  0.287203556664885  0.43210139251618107  0.8261014350316552  Uiso  ?  O
O1  1.0  0.3226315681967561  0.4322785389017749  0.8292832141871143  Uiso  ?  O
O1  1.0  0.2868842242073157  0.393472404294265  0.7904419361559303  Uiso  ?  O
O1  1.0  0.3250979091327511  0.39473059197607807  0.7899888835450011  Uiso  ?  O
O1  1.0  0.2844173477541989  0.4305827131796417  0.7907510376062685  Uiso  ?  O
O1  1.0  0.3205550898307585  0.4319861044120139  0.7874533316901727  Uiso  ?  O
Ce1  1.0  0.2667746987031364  0.3750534547922373  0.7727319417301993  Uiso  ?  Ce
Ce1  1.0  0.2655118324239975  0.41209660825636674  0.7353224789906105  Uiso  ?  Ce
Ce1  1.0  0.30794617847174205  0.37604874776807734  0.7350247308098343  Uiso  ?  Ce
Ce1  1.0  0.30492564429770397  0.4137159803423187  0.7720389522404678  Uiso  ?  Ce
O1  1.0  0.28442448033602047  0.3931362583551578  0.7565366077824667  Uiso  ?  O
O1  1.0  0.3218953659826969  0.39596908850977347  0.7536476791317586  Uiso  ?  O
O1  1.0  0.28872255812913733  0.43148791492041233  0.7505787425872732  Uiso  ?  O
O1  1.0  0.32287916573494724  0.4315249097210789  0.752772649365496  Uiso  ?  O
O1  1.0  0.2852555949095867  0.3949412338179871  0.7181843127037465  Uiso  ?  O
O1  1.0  0.32365486443102287  0.3935560089007577  0.7162608033692711  Uiso  ?  O
O1  1.0  0.2859867930154709  0.4330431490301978  0.717344838083182  Uiso  ?  O
O1  1.0  0.32194817021153294  0.4289235299092249  0.7157851670448674  Uiso  ?  O
Ce1  1.0  0.2666693961958888  0.3780104213950195  0.6971744543281884  Uiso  ?  Ce
Ce1  1.0  0.26755992463916883  0.41106968554136236  0.659639744885389  Uiso  ?  Ce
Ce1  1.0  0.3057887883328584  0.37631416474554824  0.6599861304863462  Uiso  ?  Ce
Ce1  1.0  0.3038789032610012  0.4100849779117799  0.6970152055610939  Uiso  ?  Ce
O1  1.0  0.2832873330758248  0.39573468255895666  0.6791238763143727  Uiso  ?  O
O1  1.0  0.32243174681926434  0.3949751328525166  0.6776184696556528  Uiso  ?  O
O1  1.0  0.28511172839051474  0.4314277392435286  0.6796815495419574  Uiso  ?  O
O1  1.0  0.3227171824441759  0.4320614704887715  0.6793750260984827  Uiso  ?  O
O1  1.0  0.2874288410772463  0.3958834843949752  0.6408012510967426  Uiso  ?  O
O1  1.0  0.32259277963442456  0.3934335139107493  0.6430394945393404  Uiso  ?  O
O1  1.0  0.2863355665999314  0.43159727341563137  0.6407501326113828  Uiso  ?  O
O1  1.0  0.32048396114613015  0.42959772477356706  0.6409394822002683  Uiso  ?  O
Ce1  1.0  0.26837518152878514  0.3783929692047847  0.6219400965101058  Uiso  ?  Ce
Ce1  1.0  0.2669955567981003  0.41397373551889155  0.5856643802446378  Uiso  ?  Ce
Ce1  1.0  0.30290354948930115  0.37605267774909124  0.5863055443313526  Uiso  ?  Ce
Ce1  1.0  0.30544190450378594  0.41315777453622454  0.6229029433499118  Uiso  ?  Ce
O1  1.0  0.2831462782524935  0.39490547654628866  0.6048438100218876  Uiso  ?  O
O1  1.0  0.32236129640300554  0.39585150921335505  0.6069274357163427  Uiso  ?  O
O1  1.0  0.2854835671880216  0.4303287327666008  0.6058418001340008  Uiso  ?  O
O1  1.0  0.3203860115237812  0.4304210717018359  0.6045507679390765  Uiso  ?  O
O1  1.0  0.28472800612468674  0.39428395374136693  0.5663855462222189  Uiso  ?  O
O1  1.0  0.323326836964856  0.39609980585719884  0.5651949455894372  Uiso  ?  O
O1  1.0  0.2851598418416688  0.4301366988954032  0.569431446036967  Uiso  ?  O
O1  1.0  0.32167239036722667  0.4299893220474386  0.5671751629466022  Uiso  ?  O
Ce1  1.0  0.26693337118634536  0.3759850941798069  0.5500711371074131  Uiso  ?  Ce
Ce1  1.0  0.266667142314014  0.4141967086753967  0.5112248581377532  Uiso  ?  Ce
Ce1  1.0  0.3033954547414583  0.3725857748158704  0.51298271425992  Uiso  ?  Ce
Ce1  1.0  0.30593848722922  0.41323788244129706  0.5478628998694888  Uiso  ?  Ce
O1  1.0  0.28519738522464116  0.3983972304094947  0.5331566901874449  Uiso  ?  O
O1  1.0  0.32212507905109095  0.39236624829958294  0.528769088418967  Uiso  ?  O
O1  1.0  0.28534469828745895  0.4338359234913795  0.5290159433729054  Uiso  ?  O
O1  1.0  0.3221850709039361  0.4319980857695986  0.5297864095973729  Uiso  ?  O
O1  1.0  0.2839809604895396  0.39357008918232395  0.4925683238819347  Uiso  ?  O
O1  1.0  0.3234110743234668  0.3950760997473979  0.4927717746774092  Uiso  ?  O
O1  1.0  0.28383755788472415  0.43370143815725387  0.49542650014205075  Uiso  ?  O
O1  1.0  0.32084548469991814  0.4312203730976368  0.49557417143932775  Uiso  ?  O
Ce1  1.0  0.2669943256645652  0.3770865151552347  0.4742003986854841  Uiso  ?  Ce
Ce1  1.0  0.2671637217517538  0.4135732422505236  0.4380339606977045  Uiso  ?  Ce
Ce1  1.0  0.30225093219336335  0.3762803972995298  0.43630170222831666  Uiso  ?  Ce
Ce1  1.0  0.3045088073591897  0.4140159312698018  0.4774456680377275  Uiso  ?  Ce
O1  1.0  0.2833938094041627  0.3942179404878588  0.45863769155492945  Uiso  ?  O
O1  1.0  0.32051196502556967  0.39474393122010404  0.4555190374907765  Uiso  ?  O
O1  1.0  0.28535798082087865  0.430268706259424  0.45879283035449575  Uiso  ?  O
O1  1.0  0.3214280111302876  0.4318163137568332  0.45458366382478466  Uiso  ?  O
O1  1.0  0.28530660699882404  0.3947048170569603  0.4190027013319168  Uiso  ?  O
O1  1.0  0.32213401765586624  0.39331608548681024  0.41835831171990184  Uiso  ?  O
O1  1.0  0.28584964128181306  0.43125381016548264  0.4171534694883022  Uiso  ?  O
O1  1.0  0.32215625567937034  0.42982182422351284  0.42044587621326024  Uiso  ?  O
Ce1  1.0  0.26751501489067736  0.37657096369284315  0.4011294205614707  Uiso  ?  Ce
Ce1  1.0  0.26694208613624176  0.41157311330152546  0.3637931730914589  Uiso  ?  Ce
Ce1  1.0  0.30206874766654057  0.3762882334181461  0.3627884284822934  Uiso  ?  Ce
Ce1  1.0  0.30306926253796096  0.4134518893111951  0.39748417193221064  Uiso  ?  Ce
O1  1.0  0.28373189898458634  0.3938406483605611  0.3822658783842465  Uiso  ?  O
O1  1.0  0.32270334856517574  0.39393984513189284  0.38246842013230403  Uiso  ?  O
O1  1.0  0.285823083331306  0.4324516221350842  0.38374989530847087  Uiso  ?  O
O1  1.0  0.32263311196583333  0.4324292870823456  0.38155893343451147  Uiso  ?  O
O1  1.0  0.2854663778554898  0.3955762154179505  0.34382325982948675  Uiso  ?  O
O1  1.0  0.32123591229113335  0.3953379858125086  0.3473085596873604  Uiso  ?  O
O1  1.0  0.28149081418038335  0.43199209441163633  0.3445135342449834  Uiso  ?  O
O1  1.0  0.3228787154273941  0.4289206362906438  0.3448800155240046  Uiso  ?  O
Ce1  1.0  0.2657880449083921  0.3760804645222737  0.32841923395036715  Uiso  ?  Ce
Ce1  1.0  0.2700921580624637  0.4163834224781596  0.2889744207564994  Uiso  ?  Ce
Ce1  1.0  0.3059264992939906  0.37628012397895333  0.2912848835624462  Uiso  ?  Ce
Ce1  1.0  0.30407663173745647  0.4110243458611743  0.3255172797596209  Uiso  ?  Ce
O1  1.0  0.28533535359107254  0.39324777170154196  0.30739971054529086  Uiso  ?  O
O1  1.0  0.3228322570469431  0.39764811552904966  0.31052331447292575  Uiso  ?  O
O1  1.0  0.2847599937304499  0.43246759661040485  0.30722189633661096  Uiso  ?  O
O1  1.0  0.3216406805946352  0.4357462615064297  0.30797803637696064  Uiso  ?  O
O1  1.0  0.28612773718442513  0.3930756694358367  0.27183623687460784  Uiso  ?  O
O1  1.0  0.32356160985946303  0.3957269492750886  0.271311818253765  Uiso  ?  O
O1  1.0  0.2850139836645128  0.43136294010628556  0.26975354928465034  Uiso  ?  O
O1  1.0  0.3243633981606406  0.4334215226464074  0.26928902709817437  Uiso  ?  O
Ce1  1.0  0.26545940177358823  0.37533137425175295  0.2545610646959158  Uiso  ?  Ce
Ce1  1.0  0.26783042373065136  0.41331177367646665  0.21550822861912183  Uiso  ?  Ce
Ce1  1.0  0.3058793761232598  0.37747346759856504  0.21575323877043368  Uiso  ?  Ce
Ce1  1.0  0.3071060600565582  0.4141992939427839  0.2528508933921915  Uiso  ?  Ce
O1  1.0  0.2845953992782759  0.3943178357748452  0.23340446269484846  Uiso  ?  O
O1  1.0  0.32137013953731364  0.39708347386251075  0.23453575900300028  Uiso  ?  O
O1  1.0  0.28611037502319564  0.43069920033835335  0.2352936012149006  Uiso  ?  O
O1  1.0  0.3221453867915105  0.4303872095375761  0.23256127711104577  Uiso  ?  O
O1  1.0  0.28634119700538313  0.3943692520830181  0.19614498950883838  Uiso  ?  O
O1  1.0  0.3214363648502939  0.3953644739943249  0.1980413839802777  Uiso  ?  O
O1  1.0  0.2833734193960344  0.4334816538160444  0.19678621151802309  Uiso  ?  O
O1  1.0  0.31873466328964045  0.431897375209465  0.1965760033846217  Uiso  ?  O
Ce1  1.0  0.2652396367738399  0.37813774358886654  0.17807793954906784  Uiso  ?  Ce
Ce1  1.0  0.30277200640100566  0.4108423766442761  0.17766867924205065  Uiso  ?  Ce
Ce1  1.0  0.3439331301893557  0.41066001995279083  0.8062618150444957  Uiso  ?  Ce
Ce1  1.0  0.3772679893693267  0.3779664817115618  0.8084149375969057  Uiso  ?  Ce
O1  1.0  0.3611048888435683  0.3957595812331271  0.8271906453272477  Uiso  ?  O
O1  1.0  0.39745193766531406  0.39603268942702907  0.8255557276987794  Uiso  ?  O
O1  1.0  0.35886272384037016  0.43169952036118125  0.8254738700502346  Uiso  ?  O
O1  1.0  0.39746793548593573  0.4311243166706716  0.8257289139434484  Uiso  ?  O
O1  1.0  0.36082243243322526  0.39366089159141054  0.7914923314137761  Uiso  ?  O
O1  1.0  0.39630047151551595  0.3941468736379046  0.7905213019932579  Uiso  ?  O
O1  1.0  0.3559118827586633  0.43299689999126034  0.7909650779560948  Uiso  ?  O
O1  1.0  0.39857739419679455  0.42915362724371375  0.7896123941666444  Uiso  ?  O
Ce1  1.0  0.3412056191613712  0.3754963295124219  0.7718994647458514  Uiso  ?  Ce
Ce1  1.0  0.3394349036574367  0.41122676530087576  0.7346311327738563  Uiso  ?  Ce
Ce1  1.0  0.377943996023139  0.3777162813027662  0.7340692879568416  Uiso  ?  Ce
Ce1  1.0  0.377898563522796  0.4145046198578033  0.7726945791062744  Uiso  ?  Ce
O1  1.0  0.3582979541125762  0.3943799933707609  0.7530807905693622  Uiso  ?  O
O1  1.0  0.3971119038666183  0.39229625906101495  0.7535253223289234  Uiso  ?  O
O1  1.0  0.35886440258600266  0.4319034417501256  0.7542004490767107  Uiso  ?  O
O1  1.0  0.39628384893630464  0.43349483276478706  0.7527392857727008  Uiso  ?  O
O1  1.0  0.3619987110540405  0.395755428136842  0.7136854757936696  Uiso  ?  O
O1  1.0  0.3950460198423926  0.39410284991933975  0.715196917025243  Uiso  ?  O
O1  1.0  0.3593640694261674  0.43262080427449007  0.7168228936223358  Uiso  ?  O
O1  1.0  0.39616569965994886  0.43150284912826126  0.7181849361436546  Uiso  ?  O
Ce1  1.0  0.3395920655805256  0.3787251482297268  0.697737484851713  Uiso  ?  Ce
Ce1  1.0  0.33885984724365975  0.4125697443557807  0.658101710948274  Uiso  ?  Ce
Ce1  1.0  0.37674962967866665  0.37506014195432413  0.6617258403822147  Uiso  ?  Ce
Ce1  1.0  0.3794265580947758  0.4138799561617607  0.6982299842535762  Uiso  ?  Ce
O1  1.0  0.3613276400240897  0.3954042066608201  0.676368330909553  Uiso  ?  O
O1  1.0  0.3980219642146287  0.3950074614562054  0.6787302317515855  Uiso  ?  O
O1  1.0  0.3589499316502178  0.43309731159617065  0.6786883453399493  Uiso  ?  O
O1  1.0  0.3972511490165198  0.4298588903723344  0.6799547906415248  Uiso  ?  O
O1  1.0  0.3602904509693128  0.3944118092523594  0.6402084889776759  Uiso  ?  O
O1  1.0  0.39624064595516256  0.3948553238247696  0.642566498491447  Uiso  ?  O
O1  1.0  0.3596853026462879  0.43284815286780287  0.6401579207463144  Uiso  ?  O
O1  1.0  0.39421255794113863  0.4328006247759984  0.6427916348216361  Uiso  ?  O
Ce1  1.0  0.3400152564756084  0.3757763941074122  0.6239356213517607  Uiso  ?  Ce
Ce1  1.0  0.3397742407602509  0.4116557796384969  0.5867103930234261  Uiso  ?  Ce
Ce1  1.0  0.37581923480909957  0.3756439138321077  0.5862566442626734  Uiso  ?  Ce
Ce1  1.0  0.379723872254023  0.41507456948768723  0.6212886631863435  Uiso  ?  Ce
O1  1.0  0.3592424573190717  0.393024444610624  0.6065696431784302  Uiso  ?  O
O1  1.0  0.3962413517852777  0.39612482583021813  0.6018628380349538  Uiso  ?  O
O1  1.0  0.35891412376216564  0.4318882077772987  0.606860200038619  Uiso  ?  O
O1  1.0  0.395430019600767  0.4327514618854131  0.6036451299420061  Uiso  ?  O
O1  1.0  0.3603211742378175  0.39572012019979746  0.5701685150268709  Uiso  ?  O
O1  1.0  0.3975561717134022  0.39535067215953873  0.5663552163021001  Uiso  ?  O
O1  1.0  0.360609760252588  0.4325983832424729  0.567367280250817  Uiso  ?  O
Ce1  1.0  0.3434747774028864  0.37825954091345676  0.549488982577595  Uiso  ?  Ce
Ce1  1.0  0.3401654065136662  0.41293950083035713  0.510414760307635  Uiso  ?  Ce
Ce1  1.0  0.37524720760380503  0.3771621328577352  0.5103664043477543  Uiso  ?  Ce
Ce1  1.0  0.3764362446345153  0.41118166464857725  0.5484595440992286  Uiso  ?  Ce
O1  1.0  0.3596611063583277  0.3962366423071713  0.5291763226438069  Uiso  ?  O
O1  1.0  0.39746798732020167  0.39475185012310965  0.5309137884374896  Uiso  ?  O
O1  1.0  0.3615762382366793  0.4321628921933824  0.5334311181602126  Uiso  ?  O
O1  1.0  0.361607135252087  0.3943626112653872  0.49292124718735314  Uiso  ?  O
O1  1.0  0.3992061525947099  0.3957074951741121  0.4910416865153628  Uiso  ?  O
O1  1.0  0.35883198979248404  0.43345709073121913  0.49466314450836096  Uiso  ?  O
Ce1  1.0  0.342265931387806  0.3775527458361518  0.476381348050734  Uiso  ?  Ce
Ce1  1.0  0.3426660993284445  0.41341087233431356  0.4384794899384242  Uiso  ?  Ce
Ce1  1.0  0.3769237952934687  0.3756962536698779  0.436835903781302  Uiso  ?  Ce
Ce1  1.0  0.3785223065301909  0.4150858106736222  0.4730285142938262  Uiso  ?  Ce
O1  1.0  0.3601777052432176  0.393126499392022  0.45679684192446046  Uiso  ?  O
O1  1.0  0.39535599851439573  0.3949831277905948  0.45656094004970255  Uiso  ?  O
O1  1.0  0.3595224067081433  0.4301680615720443  0.4529685890758669  Uiso  ?  O
O1  1.0  0.39545819642458563  0.43088545550141966  0.4540825883483528  Uiso  ?  O
O1  1.0  0.3596197386258459  0.39565598409678326  0.41917957756763546  Uiso  ?  O
O1  1.0  0.3975595892028154  0.3922738138368272  0.41810566045247916  Uiso  ?  O
O1  1.0  0.35862883946726565  0.42954018307092295  0.41555815451632344  Uiso  ?  O
O1  1.0  0.39442798950966607  0.43237400982142665  0.41965203913073645  Uiso  ?  O
Ce1  1.0  0.33938692317845903  0.37489510513122803  0.400789072950068  Uiso  ?  Ce
Ce1  1.0  0.3420085057230829  0.41370793806338335  0.3620585599882341  Uiso  ?  Ce
Ce1  1.0  0.37797550493036014  0.37641417431986907  0.36135019817871006  Uiso  ?  Ce
Ce1  1.0  0.3794023588220489  0.4146635645471141  0.39975984530323166  Uiso  ?  Ce
O1  1.0  0.3607712775819005  0.394454534586542  0.3795523857248402  Uiso  ?  O
O1  1.0  0.3942997154734124  0.39410208960275483  0.3837193126783881  Uiso  ?  O
O1  1.0  0.3603284564197858  0.43039959637807657  0.3825231298667047  Uiso  ?  O
O1  1.0  0.396619101099137  0.43117730869683313  0.3807358337166033  Uiso  ?  O
O1  1.0  0.3607094279147038  0.3960940087289639  0.34491844067964456  Uiso  ?  O
O1  1.0  0.3990046424447147  0.3927542661260845  0.3434300603446366  Uiso  ?  O
O1  1.0  0.35896270376297995  0.43455566814744834  0.34307448815952574  Uiso  ?  O
O1  1.0  0.3981595097210367  0.4326993902984474  0.3447392310125761  Uiso  ?  O
Ce1  1.0  0.34067417356568813  0.37798347589459513  0.32622305496226556  Uiso  ?  Ce
Ce1  1.0  0.34235576990030037  0.4129278429727978  0.28977772203763175  Uiso  ?  Ce
Ce1  1.0  0.37844141843465373  0.3770530942877036  0.2883700684077033  Uiso  ?  Ce
Ce1  1.0  0.37602528830339643  0.413192830182704  0.32713736592084536  Uiso  ?  Ce
O1  1.0  0.3611980186980538  0.3929436828574071  0.3096072215098971  Uiso  ?  O
O1  1.0  0.39604209121375816  0.394505485578341  0.3080399480130023  Uiso  ?  O
O1  1.0  0.35840822884753054  0.4322919781811568  0.309984019533088  Uiso  ?  O
O1  1.0  0.39430184313924244  0.430420386449707  0.30634822892312197  Uiso  ?  O
O1  1.0  0.35885713280529213  0.3928800585357759  0.2715380855561524  Uiso  ?  O
O1  1.0  0.3967485055672058  0.3948841370369388  0.27151455741447433  Uiso  ?  O
O1  1.0  0.3595690549826935  0.42872769747580236  0.27125147111714143  Uiso  ?  O
O1  1.0  0.39839652695352995  0.43172542996187696  0.27163437772542326  Uiso  ?  O
Ce1  1.0  0.34256030459644743  0.37389180787878895  0.25195856614797796  Uiso  ?  Ce
Ce1  1.0  0.3406068072967282  0.41353256317804554  0.21558465166126523  Uiso  ?  Ce
Ce1  1.0  0.37970042855828845  0.3790027692587982  0.21527415881463197  Uiso  ?  Ce
Ce1  1.0  0.3790141401932616  0.41223322163364506  0.2542415488125815  Uiso  ?  Ce
O1  1.0  0.3592271137202597  0.39498582073885036  0.23216897312724352  Uiso  ?  O
O1  1.0  0.3969997531144798  0.3932631926155677  0.23493453408708634  Uiso  ?  O
O1  1.0  0.36092842011447324  0.4327905098015308  0.23294325736014537  Uiso  ?  O
O1  1.0  0.3978380865620545  0.4314810803879148  0.23430080946333928  Uiso  ?  O
O1  1.0  0.3592383858121114  0.395748816335142  0.19415916756239004  Uiso  ?  O
O1  1.0  0.39572774330480315  0.3959972740759146  0.1970369410205944  Uiso  ?  O
O1  1.0  0.3616199822034972  0.430486511289847  0.19683080480751255  Uiso  ?  O
O1  1.0  0.39412022079951037  0.4314137100759972  0.19719215067411014  Uiso  ?  O
Ce1  1.0  0.3399860798817333  0.3767595121217034  0.1788504003872706  Uiso  ?  Ce
Ce1  1.0  0.3796025144295908  0.41217763207195884  0.17719152672478958  Uiso  ?  Ce
Ce1  1.0  0.4141266454678351  0.41506810236138225  0.8063586369140977  Uiso  ?  Ce
Ce1  1.0  0.45444283577825645  0.3779436134610125  0.8100636915074038  Uiso  ?  Ce
O1  1.0  0.43438012500322865  0.3963958995375647  0.8270696235707035  Uiso  ?  O
O1  1.0  0.4706409173222236  0.393704141415858  0.8255316962692261  Uiso  ?  O
O1  1.0  0.4326359786950827  0.3966529138037443  0.7898176762068218  Uiso  ?  O
O1  1.0  0.4715794152358555  0.3940109784024026  0.790821188204106  Uiso  ?  O
O1  1.0  0.4290776498320041  0.4312225761287982  0.7914372399498946  Uiso  ?  O
O1  1.0  0.47115439208173093  0.43324196083824895  0.7909377387103459  Uiso  ?  O
Ce1  1.0  0.4154175301269309  0.37659202548428106  0.7710305681351904  Uiso  ?  Ce
Ce1  1.0  0.41269077860474557  0.4144078872561462  0.7323504215766619  Uiso  ?  Ce
Ce1  1.0  0.4497567038828625  0.3765871024329823  0.7332192388746713  Uiso  ?  Ce
Ce1  1.0  0.4522339443983271  0.41401966609139856  0.77214536910322  Uiso  ?  Ce
O1  1.0  0.43229798968887356  0.3964443046878163  0.7533050655650205  Uiso  ?  O
O1  1.0  0.470592506447902  0.39196887206003034  0.7520738921213296  Uiso  ?  O
O1  1.0  0.43486662997064873  0.43305905466859507  0.7486216359416838  Uiso  ?  O
O1  1.0  0.47180754626937954  0.43229807350887905  0.7525816274073105  Uiso  ?  O
O1  1.0  0.434555727945514  0.39672990758784327  0.7152072795703641  Uiso  ?  O
O1  1.0  0.47089998317800535  0.3932719983904805  0.7170311429994122  Uiso  ?  O
O1  1.0  0.4316939920590743  0.43476771623723365  0.7154057940314782  Uiso  ?  O
O1  1.0  0.4700352670589629  0.429949519706296  0.7174896471862715  Uiso  ?  O
Ce1  1.0  0.41569657981172503  0.37653655937925384  0.6975171113677053  Uiso  ?  Ce
Ce1  1.0  0.4140187111565085  0.4133001007699272  0.6584286420961222  Uiso  ?  Ce
Ce1  1.0  0.45008242952603156  0.37757802927835993  0.6589479332644587  Uiso  ?  Ce
Ce1  1.0  0.4532028649461893  0.4151301596658004  0.6971556583845109  Uiso  ?  Ce
O1  1.0  0.4372624872212421  0.39328134307591855  0.677459326092265  Uiso  ?  O
O1  1.0  0.46811517252777296  0.3927602555893147  0.6793010180662291  Uiso  ?  O
O1  1.0  0.43505792480587835  0.4316999425296596  0.6792190987138486  Uiso  ?  O
O1  1.0  0.47084105832362  0.43278673422075664  0.6799763263435379  Uiso  ?  O
O1  1.0  0.43533343096877  0.3961701242879597  0.6433627399704893  Uiso  ?  O
O1  1.0  0.4695146065272356  0.3957989462916023  0.6404281505498424  Uiso  ?  O
O1  1.0  0.4323290378738059  0.43277060659589817  0.641969265590048  Uiso  ?  O
O1  1.0  0.4719724384372365  0.4315680471525066  0.6422623097521536  Uiso  ?  O
Ce1  1.0  0.4142996470954616  0.37759769376528135  0.6198089597801437  Uiso  ?  Ce
Ce1  1.0  0.4144997318072416  0.4137218419303311  0.5856254762734963  Uiso  ?  Ce
Ce1  1.0  0.45224182801913476  0.37659002133707264  0.5854948444578766  Uiso  ?  Ce
Ce1  1.0  0.45268884050716485  0.41392202974538794  0.6252824573372068  Uiso  ?  Ce
O1  1.0  0.43611683188339007  0.39566301928504605  0.6036028836619627  Uiso  ?  O
O1  1.0  0.47051189005085997  0.39505213910913434  0.6072786872532407  Uiso  ?  O
O1  1.0  0.429745937399184  0.4319662331032827  0.6036634153173797  Uiso  ?  O
O1  1.0  0.46950431324374137  0.43198461830377816  0.6057184804065044  Uiso  ?  O
O1  1.0  0.43265735990195175  0.39454594018710787  0.5676927397144238  Uiso  ?  O
O1  1.0  0.4698481411467627  0.39678734625696804  0.5672790880685411  Uiso  ?  O
O1  1.0  0.43280286583679445  0.43195386640417843  0.5687343834289053  Uiso  ?  O
Ce1  1.0  0.41547634540239675  0.37778867388780424  0.5485914418128869  Uiso  ?  Ce
Ce1  1.0  0.4150015320717336  0.4132340089240372  0.5121167870698271  Uiso  ?  Ce
Ce1  1.0  0.45402589026787826  0.3765930670963763  0.5121782099370872  Uiso  ?  Ce
Ce1  1.0  0.45136493368838937  0.4118799551569727  0.5502507461692844  Uiso  ?  Ce
O1  1.0  0.4330623769578808  0.3943869473889073  0.5328643331336552  Uiso  ?  O
O1  1.0  0.46965127086471187  0.3967967171296051  0.5331351218065149  Uiso  ?  O
O1  1.0  0.43375275554276516  0.3950840735626131  0.49193380556791316  Uiso  ?  O
O1  1.0  0.46942903476166675  0.39561208759932415  0.49589111040164524  Uiso  ?  O
Ce1  1.0  0.4133978942256338  0.37598529550982956  0.47536976858152774  Uiso  ?  Ce
Ce1  1.0  0.41441983102190494  0.41384345628741875  0.43792903569428293  Uiso  ?  Ce
Ce1  1.0  0.4532586773711389  0.37672690026484146  0.43676455261087865  Uiso  ?  Ce
Ce1  1.0  0.4510776566401593  0.4132430794353188  0.47454514900162814  Uiso  ?  Ce
O1  1.0  0.4348677184718553  0.396360378470199  0.4553650267793779  Uiso  ?  O
O1  1.0  0.4723350936973605  0.39437551104330215  0.45494131998993964  Uiso  ?  O
O1  1.0  0.4356991908103913  0.3958374619980326  0.41943364460081395  Uiso  ?  O
O1  1.0  0.47153109446411506  0.3949676004710279  0.4194655419845919  Uiso  ?  O
O1  1.0  0.4713506881731509  0.43334084468984885  0.418547107474373  Uiso  ?  O
Ce1  1.0  0.41440984698712036  0.3786082934947406  0.4022738096299949  Uiso  ?  Ce
Ce1  1.0  0.4162449794329387  0.4136684670746267  0.3621437725524676  Uiso  ?  Ce
Ce1  1.0  0.4516133993783668  0.3742723209715103  0.3647426106232566  Uiso  ?  Ce
Ce1  1.0  0.4526811533330246  0.4117618174097357  0.4015561708349272  Uiso  ?  Ce
O1  1.0  0.4340402129197825  0.39832744478036636  0.3811908739386327  Uiso  ?  O
O1  1.0  0.4699136889312605  0.39692246511251195  0.38099720092578265  Uiso  ?  O
O1  1.0  0.4364687518819556  0.4317696336319977  0.38295027068488396  Uiso  ?  O
O1  1.0  0.46817742974005494  0.4317527720345322  0.3820389864050425  Uiso  ?  O
O1  1.0  0.43330374728508336  0.3995814111484601  0.34649335184235946  Uiso  ?  O
O1  1.0  0.4711924060966431  0.3940883867019028  0.3437628226441933  Uiso  ?  O
O1  1.0  0.4344199600074946  0.4304636239584717  0.34244819701314283  Uiso  ?  O
O1  1.0  0.47212732721861495  0.4304938424347006  0.3455775539245914  Uiso  ?  O
Ce1  1.0  0.41401581626336786  0.37555463321584126  0.32642100299007826  Uiso  ?  Ce
Ce1  1.0  0.4149309102928869  0.4141048016901169  0.29092227905413726  Uiso  ?  Ce
Ce1  1.0  0.45044884875701496  0.37617828660583763  0.28976286225379494  Uiso  ?  Ce
Ce1  1.0  0.4520803271741228  0.41276758364361316  0.32763310321062034  Uiso  ?  Ce
O1  1.0  0.43302673038923645  0.39555739894647773  0.3064182757945621  Uiso  ?  O
O1  1.0  0.47126180654295463  0.39273485094780064  0.31027630531610456  Uiso  ?  O
O1  1.0  0.43340466947999357  0.4300946177967062  0.3071164379553851  Uiso  ?  O
O1  1.0  0.473195943422336  0.4319122552936402  0.3094415826120916  Uiso  ?  O
O1  1.0  0.4351510483453206  0.3939980618279077  0.26938546986694595  Uiso  ?  O
O1  1.0  0.4709213062935084  0.3960583012287664  0.2725317141878597  Uiso  ?  O
O1  1.0  0.4333991164675965  0.43243939106873286  0.2684438804520852  Uiso  ?  O
O1  1.0  0.47367556778553443  0.43332171757758586  0.2724008881018003  Uiso  ?  O
Ce1  1.0  0.41334068947404423  0.3765365195547894  0.2535262597919732  Uiso  ?  Ce
Ce1  1.0  0.41477764320449156  0.4140928871742522  0.2148248375648028  Uiso  ?  Ce
Ce1  1.0  0.45173022442336763  0.3770362303836426  0.2146616075526406  Uiso  ?  Ce
Ce1  1.0  0.4538728174549369  0.41341274192307625  0.25384331433901547  Uiso  ?  Ce
O1  1.0  0.4321895633452152  0.3934960050685228  0.23338384947268637  Uiso  ?  O
O1  1.0  0.4709638349629862  0.3951924738651994  0.2335877320424314  Uiso  ?  O
O1  1.0  0.43312223492291796  0.4299463961478025  0.23614270379218483  Uiso  ?  O
O1  1.0  0.43443020854770575  0.39728902755718565  0.19527963589671904  Uiso  ?  O
Ce1  1.0  0.4170125578189519  0.3781803578508603  0.1790008839880054  Uiso  ?  Ce
Ce1  1.0  0.4907479002633836  0.4124757278859809  0.8084883769043681  Uiso  ?  Ce
Ce1  1.0  0.5283156593586993  0.37763950846257544  0.8068234659714445  Uiso  ?  Ce
O1  1.0  0.5078295994670333  0.39692546921561117  0.8268988299825367  Uiso  ?  O
O1  1.0  0.5465709267892663  0.39552712142361945  0.8247998239043692  Uiso  ?  O
O1  1.0  0.5057532431788527  0.39565852294007353  0.7905699088941138  Uiso  ?  O
O1  1.0  0.5433900404271296  0.396517546603411  0.7887717786592272  Uiso  ?  O
Ce1  1.0  0.4872446449180729  0.37686122125341603  0.7715085041144829  Uiso  ?  Ce
Ce1  1.0  0.48780597192616293  0.41463374125138347  0.7337597450593994  Uiso  ?  Ce
Ce1  1.0  0.5265803405360003  0.3760228984800215  0.7323574494019262  Uiso  ?  Ce
Ce1  1.0  0.5295352213521841  0.4123802926660775  0.7703160684154335  Uiso  ?  Ce
O1  1.0  0.5062714341111118  0.3952005816058886  0.7522014578748359  Uiso  ?  O
O1  1.0  0.5450462778166267  0.39283054739409173  0.7510963091474013  Uiso  ?  O
O1  1.0  0.5063582424479949  0.43064578730606745  0.7517485397976839  Uiso  ?  O
O1  1.0  0.5070693649484718  0.39411194138853123  0.7145988410645673  Uiso  ?  O
O1  1.0  0.5430052636713382  0.3931939510247557  0.7152324392527197  Uiso  ?  O
O1  1.0  0.506561681846927  0.43193258082018515  0.7145990749001574  Uiso  ?  O
Ce1  1.0  0.48973242213811896  0.37464374283006174  0.6984448921108962  Uiso  ?  Ce
Ce1  1.0  0.48856284224888225  0.4120088088114198  0.6606727312892197  Uiso  ?  Ce
Ce1  1.0  0.5267441070876638  0.3768709204767548  0.6591675669908132  Uiso  ?  Ce
Ce1  1.0  0.5249793360679444  0.41161148477253073  0.6969585339389328  Uiso  ?  Ce
O1  1.0  0.5094152688092254  0.39285252124626424  0.6797692289520542  Uiso  ?  O
O1  1.0  0.5441542392351464  0.39571318373604086  0.6802973316854327  Uiso  ?  O
O1  1.0  0.5071282856803078  0.4325177702397854  0.6780956988382362  Uiso  ?  O
O1  1.0  0.5434321465239424  0.4330986433876523  0.6776964651067587  Uiso  ?  O
O1  1.0  0.5084816353961045  0.3943119134547518  0.6391301011237612  Uiso  ?  O
O1  1.0  0.5444585527415905  0.39440139514374695  0.6436408447355159  Uiso  ?  O
O1  1.0  0.5068458309905555  0.43287894385936854  0.6440617866745972  Uiso  ?  O
O1  1.0  0.54474719186172  0.4312499047276079  0.6429588764061851  Uiso  ?  O
Ce1  1.0  0.489595105302949  0.3769965121520346  0.6235910616515047  Uiso  ?  Ce
Ce1  1.0  0.4916947012204404  0.4109742507536208  0.5857430204510786  Uiso  ?  Ce
Ce1  1.0  0.5272653561229365  0.3764399883601395  0.5851841547219147  Uiso  ?  Ce
Ce1  1.0  0.5253763882513837  0.4159860835748602  0.6222087985661893  Uiso  ?  Ce
O1  1.0  0.5058505885038103  0.39504922406360876  0.6048420349677628  Uiso  ?  O
O1  1.0  0.5457047358150642  0.39295349479856595  0.6052287588953258  Uiso  ?  O
O1  1.0  0.5097889646600722  0.43153785273479284  0.6035528603165549  Uiso  ?  O
O1  1.0  0.54410631403292  0.4307390732914637  0.6059030393404963  Uiso  ?  O
O1  1.0  0.5088030932603159  0.39393254016257023  0.5676302231606466  Uiso  ?  O
O1  1.0  0.542948510252357  0.39445293738632387  0.5671248727867017  Uiso  ?  O
O1  1.0  0.5091303516668089  0.43221060199861366  0.5638707219250557  Uiso  ?  O
O1  1.0  0.5424134205129852  0.4286283202405211  0.566789923970822  Uiso  ?  O
Ce1  1.0  0.4892589868127261  0.37449185091764836  0.5486359255285173  Uiso  ?  Ce
Ce1  1.0  0.48824675379787835  0.4128819772551237  0.5117459192281671  Uiso  ?  Ce
Ce1  1.0  0.5258061818474851  0.3758279053593562  0.5096227969042012  Uiso  ?  Ce
Ce1  1.0  0.5268051311599442  0.41285109263069164  0.5491434015089217  Uiso  ?  Ce
O1  1.0  0.5086696442917128  0.3960838757308976  0.5305902888191549  Uiso  ?  O
O1  1.0  0.5437552906214553  0.3956395520738971  0.5293298348964949  Uiso  ?  O
O1  1.0  0.5442828320221562  0.43318391288415814  0.5313621711916682  Uiso  ?  O
O1  1.0  0.5076607868214883  0.3953002759889745  0.49421970518296404  Uiso  ?  O
O1  1.0  0.545003755992029  0.3961137791445602  0.49211422906199015  Uiso  ?  O
O1  1.0  0.5095728287574922  0.4305681731315428  0.49259023769458765  Uiso  ?  O
O1  1.0  0.5483604701618204  0.4322142800772099  0.4943691598693257  Uiso  ?  O
Ce1  1.0  0.48656940475201993  0.37440260794900915  0.47543722235531016  Uiso  ?  Ce
Ce1  1.0  0.48572312370368215  0.4126447541928561  0.438932594355146  Uiso  ?  Ce
Ce1  1.0  0.5251985650931978  0.37834744717642693  0.43886970653059476  Uiso  ?  Ce
Ce1  1.0  0.5246584226661937  0.41186351908618124  0.47612851460244393  Uiso  ?  Ce
O1  1.0  0.5085654165605462  0.3924423738440476  0.45693664663252725  Uiso  ?  O
O1  1.0  0.5439266207534876  0.3949121815051951  0.45495034407397755  Uiso  ?  O
O1  1.0  0.5434431838539758  0.43196999494738386  0.45565958990661454  Uiso  ?  O
O1  1.0  0.5057126215143373  0.3931855082182156  0.41916693881422  Uiso  ?  O
O1  1.0  0.5435013761885282  0.3949530077587789  0.41894711159100845  Uiso  ?  O
O1  1.0  0.5078538959416865  0.4293802556928777  0.41909020637868544  Uiso  ?  O
O1  1.0  0.5439507534622013  0.4329479531454359  0.417824323597758  Uiso  ?  O
Ce1  1.0  0.4888842294714764  0.37677435114333885  0.40295038386430676  Uiso  ?  Ce
Ce1  1.0  0.4894252514863166  0.41104978839653283  0.3638778735584379  Uiso  ?  Ce
Ce1  1.0  0.5262228268682458  0.37651690478648414  0.36146902557926763  Uiso  ?  Ce
Ce1  1.0  0.5280302445656136  0.410621138870799  0.40254269735891546  Uiso  ?  Ce
O1  1.0  0.5076167361973942  0.39395224355483305  0.3836050148019419  Uiso  ?  O
O1  1.0  0.5465808510169198  0.3978071139471497  0.38043303814861895  Uiso  ?  O
O1  1.0  0.5062560980431071  0.43286733627262064  0.38247646795026446  Uiso  ?  O
O1  1.0  0.5450350417491396  0.43149090828631403  0.3834669329528328  Uiso  ?  O
O1  1.0  0.5086325856588053  0.39453649535387847  0.34452446765740385  Uiso  ?  O
O1  1.0  0.5436406445058637  0.3956057236100956  0.34565165155312555  Uiso  ?  O
O1  1.0  0.5070945782403062  0.43142150766217935  0.3454492212784094  Uiso  ?  O
Ce1  1.0  0.489962511426782  0.3738549681127369  0.3264753475569813  Uiso  ?  Ce
Ce1  1.0  0.48932683089154727  0.4133401415129881  0.28897042049201643  Uiso  ?  Ce
Ce1  1.0  0.5244445549389656  0.37621829321566586  0.2881537023944834  Uiso  ?  Ce
Ce1  1.0  0.525943435826281  0.4133521749256139  0.32383174711740875  Uiso  ?  Ce
O1  1.0  0.508145818038067  0.3966455790926094  0.30890071732716534  Uiso  ?  O
O1  1.0  0.5436756066095257  0.3972537688745418  0.3102322987912157  Uiso  ?  O
O1  1.0  0.5055420519575999  0.4313076458006719  0.3056736213675403  Uiso  ?  O
O1  1.0  0.5059591556901967  0.3962602943761119  0.27171293659672385  Uiso  ?  O
Ce1  1.0  0.4899269931377041  0.37787932807346386  0.25371508415309646  Uiso  ?  Ce
Ce1  1.0  0.5994885238799369  0.3738311080707067  0.8088264237562551  Uiso  ?  Ce
O1  1.0  0.5789086797072308  0.3932987598092773  0.8259086297407552  Uiso  ?  O
O1  1.0  0.579013508398431  0.3951555527712695  0.7895870907383162  Uiso  ?  O
O1  1.0  0.620153990352173  0.39660075995502303  0.7897202157675652  Uiso  ?  O
Ce1  1.0  0.5628203269893024  0.37663272430244227  0.7709594234909664  Uiso  ?  Ce
Ce1  1.0  0.5658145562852568  0.41311289272200824  0.7344114002398355  Uiso  ?  Ce
Ce1  1.0  0.5989333654555784  0.376421464865948  0.7342364188329329  Uiso  ?  Ce
O1  1.0  0.5816495129477786  0.39543662761329706  0.7526122057359524  Uiso  ?  O
O1  1.0  0.620246985405461  0.3938321437008254  0.7517181463420548  Uiso  ?  O
O1  1.0  0.581641626665603  0.39439093874384823  0.713457477197985  Uiso  ?  O
O1  1.0  0.6185640417030105  0.396197453757719  0.7175950044456767  Uiso  ?  O
Ce1  1.0  0.5645007743782907  0.378058677658237  0.6980129925808087  Uiso  ?  Ce
Ce1  1.0  0.5615458337219259  0.4148491013297578  0.6597341775404331  Uiso  ?  Ce
Ce1  1.0  0.6013603134827948  0.3777652407748594  0.6595317542124258  Uiso  ?  Ce
Ce1  1.0  0.6008575964660886  0.4146307434708937  0.6980427627042128  Uiso  ?  Ce
O1  1.0  0.5828445502792985  0.39468285496878874  0.6790496768809868  Uiso  ?  O
O1  1.0  0.617627106330239  0.39687410947517077  0.6799468357157189  Uiso  ?  O
O1  1.0  0.5812413987509165  0.39385044618628556  0.6432761886689766  Uiso  ?  O
O1  1.0  0.6156982994611399  0.3947294535057214  0.6415816816634724  Uiso  ?  O
Ce1  1.0  0.5636764810967695  0.3766082789430469  0.6238446665265764  Uiso  ?  Ce
Ce1  1.0  0.5646124695964843  0.41291046099518536  0.5856975397325243  Uiso  ?  Ce
Ce1  1.0  0.6002778791627255  0.37581474738172915  0.5876970845950397  Uiso  ?  Ce
Ce1  1.0  0.5989616458638789  0.41204521291692503  0.62537414737733  Uiso  ?  Ce
O1  1.0  0.5824471964573524  0.39421906311047994  0.6059162131253497  Uiso  ?  O
O1  1.0  0.6184668417789241  0.3954677653820598  0.6062809253734059  Uiso  ?  O
O1  1.0  0.5819059924044071  0.3943653903347601  0.5690076286216998  Uiso  ?  O
O1  1.0  0.619019990852546  0.3949305848118386  0.5647005197723812  Uiso  ?  O
O1  1.0  0.5814468664997524  0.43408772836108467  0.5670197748091595  Uiso  ?  O
Ce1  1.0  0.5651772532892363  0.3755725837116298  0.5487725075703754  Uiso  ?  Ce
Ce1  1.0  0.567119874629404  0.41577355547196165  0.5108303611562461  Uiso  ?  Ce
Ce1  1.0  0.600112305814565  0.37504033444710383  0.5093749030973808  Uiso  ?  Ce
Ce1  1.0  0.6010024073720125  0.41437923713079416  0.5501893095542949  Uiso  ?  Ce
O1  1.0  0.5805973837629012  0.3944308197276009  0.5295647785739934  Uiso  ?  O
O1  1.0  0.6194052195890599  0.39528826022083613  0.5289865724258443  Uiso  ?  O
O1  1.0  0.5825520102626948  0.43106715421129027  0.5296154805905784  Uiso  ?  O
O1  1.0  0.5809882468825066  0.39579403274371916  0.49365705079548633  Uiso  ?  O
O1  1.0  0.6166010208975092  0.39456972958371694  0.49483587685847485  Uiso  ?  O
O1  1.0  0.5813836038420473  0.43238605606665265  0.4934224578162977  Uiso  ?  O
Ce1  1.0  0.563325954801556  0.37395911539871907  0.4751408335231883  Uiso  ?  Ce
Ce1  1.0  0.5625147753633484  0.4150075559888798  0.4355247179272154  Uiso  ?  Ce
Ce1  1.0  0.6005910714740091  0.37492975965834063  0.43729079336270427  Uiso  ?  Ce
Ce1  1.0  0.601928812877041  0.415414430907481  0.47402888442531244  Uiso  ?  Ce
O1  1.0  0.582231270756309  0.39596258082012953  0.45523335653504254  Uiso  ?  O
O1  1.0  0.6163349405966847  0.39333503350201277  0.45697880655117606  Uiso  ?  O
O1  1.0  0.5807163237918633  0.4312741032889102  0.4537543808149109  Uiso  ?  O
O1  1.0  0.581215870372931  0.3968303348237737  0.41758222754897156  Uiso  ?  O
O1  1.0  0.6192731547322963  0.39089560946878277  0.4195259541694553  Uiso  ?  O
Ce1  1.0  0.5632632283905763  0.3784871854063714  0.3984979556711258  Uiso  ?  Ce
Ce1  1.0  0.5618156661063445  0.41367474244175234  0.3621498092291391  Uiso  ?  Ce
Ce1  1.0  0.5988177850945883  0.3744198853181895  0.3636182306683086  Uiso  ?  Ce
Ce1  1.0  0.5999918941019221  0.4142010648495496  0.40153217434558874  Uiso  ?  Ce
O1  1.0  0.583863011022924  0.39351249416271006  0.38060302307992505  Uiso  ?  O
O1  1.0  0.618727593272046  0.3951631542292295  0.3802361470953355  Uiso  ?  O
O1  1.0  0.5816138303183702  0.39544136612502895  0.34366139431181436  Uiso  ?  O
Ce1  1.0  0.5611279586469167  0.37566541137519643  0.3269462065349131  Uiso  ?  Ce
Ce1  1.0  0.6742872347256793  0.3778472557563754  0.8077567847865748  Uiso  ?  Ce
Ce1  1.0  0.6362092176183971  0.37577266956244476  0.770054489641671  Uiso  ?  Ce
Ce1  1.0  0.6743225920393078  0.3754376468159319  0.7362381273053832  Uiso  ?  Ce
O1  1.0  0.6552404018832829  0.3919934369835643  0.7528260698608542  Uiso  ?  O
O1  1.0  0.6556686023783221  0.39354681652561674  0.7128710253809122  Uiso  ?  O
Ce1  1.0  0.639076392763021  0.374398236347719  0.7002369351265492  Uiso  ?  Ce
Ce1  1.0  0.6759264030697956  0.37587502018809205  0.6594865408215315  Uiso  ?  Ce
O1  1.0  0.6530770880185105  0.3947660794692534  0.6792758962791181  Uiso  ?  O
O1  1.0  0.6568458498588333  0.3939333131419456  0.6416141902445077  Uiso  ?  O
Ce1  1.0  0.6374831999924727  0.3777901530531235  0.6233648384413876  Uiso  ?  Ce
Ce1  1.0  0.6760143302338212  0.37682475993063785  0.5906245092153826  Uiso  ?  Ce
O1  1.0  0.6565611923398291  0.3926623104074778  0.6042264750074063  Uiso  ?  O
O1  1.0  0.6551587050093998  0.39086850277385954  0.5646145513136416  Uiso  ?  O
Ce1  1.0  0.6387344828569552  0.3766717374877763  0.5481934190966333  Uiso  ?  Ce
Ce1  1.0  0.6755376022663304  0.37430519898780024  0.5114503178866842  Uiso  ?  Ce
O1  1.0  0.6533033385393869  0.39448321030315664  0.5321126314480211  Uiso  ?  O
O1  1.0  0.655335262834568  0.3958447198507587  0.493439623506578  Uiso  ?  O
Ce1  1.0  0.6359764462287079  0.37603880005815293  0.475142480844322  Uiso  ?  Ce
Ce1  1.0  0.6778679788425536  0.375501231307164  0.43965386663053757  Uiso  ?  Ce
O1  1.0  0.6537796958004655  0.3930783736494054  0.4550543294430701  Uiso  ?  O
Ce1  1.0  0.6362725159613406  0.3737210371499302  0.4015491275336009  Uiso  ?  Ce
Ce1  1.0  0.710128817259548  0.3779916242785781  0.7718929479253716  Uiso  ?  Ce
Ce1  1.0  0.7101140225574445  0.3740390477259062  0.6972478403889716  Uiso  ?  Ce
Ce1  1.0  0.7127074177940249  0.3748606674888476  0.6216245146093234  Uiso  ?  Ce
Ce1  1.0  0.7114088918275547  0.37491068067586203  0.5466769418300416  Uiso  ?  Ce
Ce1  1.0  0.15546785944092673  0.30252814181271204  0.8121133579726894  Uiso  ?  Ce
O1  1.0  0.1728872882761109  0.3210579905719562  0.8267288411658503  Uiso  ?  O
O1  1.0  0.1759191223663281  0.3550155971993629  0.8261404637957558  Uiso  ?  O
O1  1.0  0.13949486849173434  0.3201930025015095  0.7917981129829255  Uiso  ?  O
O1  1.0  0.17168685087055302  0.31840956072948584  0.7868729808061861  Uiso  ?  O
O1  1.0  0.1741944103989078  0.3577614062208713  0.7882499533172846  Uiso  ?  O
Ce1  1.0  0.1550159126406  0.3017954951339603  0.7344807365537636  Uiso  ?  Ce
Ce1  1.0  0.1551836027087474  0.33656166032457097  0.770497785711491  Uiso  ?  Ce
O1  1.0  0.1758309612539453  0.3200865211080367  0.7527289553806896  Uiso  ?  O
O1  1.0  0.17165870185116186  0.3577048431172698  0.7539959592968962  Uiso  ?  O
O1  1.0  0.13714750221126742  0.32183156262692736  0.7159968043782503  Uiso  ?  O
O1  1.0  0.17262574513026568  0.321075089911357  0.7155772814800709  Uiso  ?  O
O1  1.0  0.13804310889926394  0.35737261997325787  0.7161465137423935  Uiso  ?  O
O1  1.0  0.17235555204253744  0.3601581813766152  0.7146784410816918  Uiso  ?  O
Ce1  1.0  0.1583473571613965  0.3042230505478797  0.659195788320043  Uiso  ?  Ce
Ce1  1.0  0.15573470175638976  0.3386169392909786  0.6988608307293515  Uiso  ?  Ce
O1  1.0  0.17631035056599983  0.3214916670523535  0.679790552042857  Uiso  ?  O
O1  1.0  0.17643220984684485  0.358185422252991  0.6786587849234039  Uiso  ?  O
O1  1.0  0.17486839929688544  0.3179484815574873  0.6407038788882528  Uiso  ?  O
O1  1.0  0.17342245592350053  0.3573107529503435  0.6416994769408466  Uiso  ?  O
Ce1  1.0  0.15673178499861226  0.30168524429086696  0.5834410870754014  Uiso  ?  Ce
Ce1  1.0  0.1567964870459167  0.33932963959325274  0.6238367583657546  Uiso  ?  Ce
O1  1.0  0.17302257962420955  0.32002976486745344  0.6036983233016908  Uiso  ?  O
O1  1.0  0.17679256204165067  0.35596670488938703  0.6061910301183954  Uiso  ?  O
O1  1.0  0.13767118241292114  0.3232154658617399  0.5694985552940038  Uiso  ?  O
O1  1.0  0.17242123874393225  0.3224084548558652  0.5702654823114787  Uiso  ?  O
O1  1.0  0.13893078453783764  0.35603401805728324  0.5667365669051091  Uiso  ?  O
O1  1.0  0.1747590723512565  0.35892989461038133  0.5683845511828209  Uiso  ?  O
Ce1  1.0  0.1544214934953651  0.30322265469824333  0.5129686220408229  Uiso  ?  Ce
Ce1  1.0  0.15677469092029192  0.3416223478859801  0.5491032180947932  Uiso  ?  Ce
O1  1.0  0.174659148027897  0.32163524320468106  0.5303936276261814  Uiso  ?  O
O1  1.0  0.13715322675002908  0.3590607736426975  0.5291779891324458  Uiso  ?  O
O1  1.0  0.17426584161293424  0.3579085068880087  0.5294806669020549  Uiso  ?  O
O1  1.0  0.17248191297749124  0.32238111530600433  0.4926438619349324  Uiso  ?  O
O1  1.0  0.17542299167614606  0.36009493684499233  0.4925939002677241  Uiso  ?  O
Ce1  1.0  0.15426308981821016  0.3032803833271473  0.43632887068251186  Uiso  ?  Ce
Ce1  1.0  0.15592448757376334  0.3415521942124231  0.4757919363722795  Uiso  ?  Ce
O1  1.0  0.13723043505606297  0.32155045939631677  0.4574302351220123  Uiso  ?  O
O1  1.0  0.1749954430817888  0.3238585033895618  0.45563102566234254  Uiso  ?  O
O1  1.0  0.1728543271077554  0.35568710414734456  0.45598071345800667  Uiso  ?  O
O1  1.0  0.1725141028603901  0.3211400514209028  0.4194574933663959  Uiso  ?  O
O1  1.0  0.172521386949904  0.3595515932109605  0.4186531609111636  Uiso  ?  O
Ce1  1.0  0.15789877973595454  0.30119560922399075  0.3629278021428794  Uiso  ?  Ce
Ce1  1.0  0.15302785982874756  0.3400888814744681  0.4017797397365452  Uiso  ?  Ce
O1  1.0  0.17449942041119657  0.31966753249858254  0.38330899144250424  Uiso  ?  O
O1  1.0  0.17490788335879176  0.35548125690063437  0.38280969847635865  Uiso  ?  O
O1  1.0  0.1384309181885226  0.32194612645007886  0.3471490346487763  Uiso  ?  O
O1  1.0  0.17551780636259118  0.32017203120303905  0.3448324377308322  Uiso  ?  O
O1  1.0  0.17289219660674576  0.3572931100261638  0.3440478610632062  Uiso  ?  O
Ce1  1.0  0.156248712234089  0.3017018065476618  0.2907475355975053  Uiso  ?  Ce
Ce1  1.0  0.15675998854577736  0.3375932783529897  0.326186207672657  Uiso  ?  Ce
O1  1.0  0.17519379574145602  0.3199497363029275  0.3076192017909901  Uiso  ?  O
O1  1.0  0.17234919077079225  0.3601381528515754  0.30878119623873235  Uiso  ?  O
O1  1.0  0.1395496690858069  0.32123479411023587  0.2703882267633522  Uiso  ?  O
O1  1.0  0.17292322908037192  0.32032880858656293  0.272896005191024  Uiso  ?  O
O1  1.0  0.13880653824258213  0.35841976552834054  0.2720072004757394  Uiso  ?  O
O1  1.0  0.17146575809706965  0.3556767677498832  0.2685145705363415  Uiso  ?  O
Ce1  1.0  0.15322918917394235  0.3021634149639605  0.21908095232471292  Uiso  ?  Ce
Ce1  1.0  0.15375552571327347  0.33867315910943396  0.2522266943344403  Uiso  ?  Ce
O1  1.0  0.13744463733867052  0.320265169177066  0.23236024319306067  Uiso  ?  O
O1  1.0  0.17251727666048466  0.3226769374092866  0.23514648549639036  Uiso  ?  O
O1  1.0  0.1732959263875401  0.35931656209818996  0.23346760698740943  Uiso  ?  O
O1  1.0  0.17480458425333897  0.3207536415063801  0.1972008923761621  Uiso  ?  O
O1  1.0  0.170495766266083  0.356550029483223  0.19635516829461386  Uiso  ?  O
Ce1  1.0  0.1567688791299216  0.3391483382645592  0.17822838048177927  Uiso  ?  Ce
Ce1  1.0  0.19240591588558772  0.3408016870378038  0.8081307925647654  Uiso  ?  Ce
Ce1  1.0  0.2294457768574213  0.3027535650256863  0.8100979463649582  Uiso  ?  Ce
O1  1.0  0.21329305602527807  0.32330353736916856  0.8292635346738302  Uiso  ?  O
O1  1.0  0.2486117986040524  0.3192855793396727  0.8265021679386173  Uiso  ?  O
O1  1.0  0.21191690376941216  0.3577724556200284  0.8259331851797254  Uiso  ?  O
O1  1.0  0.2466256449722315  0.35739807882584124  0.8273747685927391  Uiso  ?  O
O1  1.0  0.2121929474962573  0.3210554535236842  0.7904352305221568  Uiso  ?  O
O1  1.0  0.2485127455091557  0.3212694708951588  0.790505768679434  Uiso  ?  O
O1  1.0  0.21001790596812908  0.35900940134293385  0.7901211613555967  Uiso  ?  O
O1  1.0  0.248063597433781  0.3573494878099712  0.7880296741946874  Uiso  ?  O
Ce1  1.0  0.193794436548867  0.2996373200718421  0.7702531392198403  Uiso  ?  Ce
Ce1  1.0  0.191414369860054  0.3408635399113891  0.7341746074068908  Uiso  ?  Ce
Ce1  1.0  0.22894552995274411  0.30218552511764213  0.7326152790370374  Uiso  ?  Ce
Ce1  1.0  0.22794650521561977  0.33779021010335236  0.7711243737578574  Uiso  ?  Ce
O1  1.0  0.21202841976762737  0.320020839554214  0.7520832056952891  Uiso  ?  O
O1  1.0  0.2472604526590065  0.32081693186447324  0.7525970826236918  Uiso  ?  O
O1  1.0  0.21003543391043772  0.3582707871109377  0.7519845488935728  Uiso  ?  O
O1  1.0  0.24519482619505678  0.36009121041678893  0.7516898475662287  Uiso  ?  O
O1  1.0  0.20912358505230147  0.32124368937743847  0.7147215294236609  Uiso  ?  O
O1  1.0  0.24896260224149375  0.32213515907408313  0.7189541525690236  Uiso  ?  O
O1  1.0  0.20678501051333698  0.35563538423464924  0.7171167211348028  Uiso  ?  O
O1  1.0  0.24711663320799096  0.35705182074774305  0.7146813161784354  Uiso  ?  O
Ce1  1.0  0.1924332281391648  0.3027231959125724  0.6968262161282475  Uiso  ?  Ce
Ce1  1.0  0.1940607203281315  0.34258956405153446  0.6604249799118443  Uiso  ?  Ce
Ce1  1.0  0.22969268132397003  0.29993830584230746  0.6602165942731851  Uiso  ?  Ce
Ce1  1.0  0.23264123098591422  0.3394152868047872  0.6987596563017133  Uiso  ?  Ce
O1  1.0  0.21052538229220977  0.31819562465954726  0.6809896176084976  Uiso  ?  O
O1  1.0  0.24819891677906722  0.3203540620342108  0.6792215941316205  Uiso  ?  O
O1  1.0  0.21252365339912246  0.35738468699704334  0.6775784049369745  Uiso  ?  O
O1  1.0  0.24659617048491986  0.35917189404361816  0.6806474274676231  Uiso  ?  O
O1  1.0  0.2112223776151993  0.31998396581763033  0.6411282561853  Uiso  ?  O
O1  1.0  0.24651315488402267  0.32173681434592005  0.6420224100141008  Uiso  ?  O
O1  1.0  0.2133716389429147  0.3594956220865664  0.6435326554992253  Uiso  ?  O
O1  1.0  0.24886174520267584  0.3577401873584199  0.6435966165658868  Uiso  ?  O
Ce1  1.0  0.19134941345671072  0.3016488090715325  0.6212474114615835  Uiso  ?  Ce
Ce1  1.0  0.19279421569297567  0.34027239604599435  0.5833615332814073  Uiso  ?  Ce
Ce1  1.0  0.22972485537196846  0.3024239133752361  0.5847567944340872  Uiso  ?  Ce
Ce1  1.0  0.23012801952905843  0.3391270529877891  0.624342751580183  Uiso  ?  Ce
O1  1.0  0.20779835670806204  0.3194905836392464  0.605437000998452  Uiso  ?  O
O1  1.0  0.24760124408409473  0.321959753429681  0.6031290994166036  Uiso  ?  O
O1  1.0  0.2115259110587281  0.35755465974551226  0.6021357534444561  Uiso  ?  O
O1  1.0  0.2489149958719106  0.35998806728695076  0.6054733442568354  Uiso  ?  O
O1  1.0  0.2110728866417185  0.32238470779722456  0.5674841550918226  Uiso  ?  O
O1  1.0  0.24832630098664854  0.31893497339809346  0.5670774981281473  Uiso  ?  O
O1  1.0  0.21095299712396826  0.35600448122645295  0.5669943336559272  Uiso  ?  O
O1  1.0  0.2477341021116742  0.35956976763937687  0.5677014034362915  Uiso  ?  O
Ce1  1.0  0.19443706054145424  0.3026740146745829  0.5485402528411845  Uiso  ?  Ce
Ce1  1.0  0.19318518460272208  0.34156710444724975  0.5113650987313704  Uiso  ?  Ce
Ce1  1.0  0.22843046736554753  0.30221045123821977  0.512558271536348  Uiso  ?  Ce
Ce1  1.0  0.2276820049515049  0.33942177931779943  0.5486914413261431  Uiso  ?  Ce
O1  1.0  0.21471095398134016  0.3213707379401358  0.5318464289812954  Uiso  ?  O
O1  1.0  0.24949997097727014  0.3200262345477543  0.5282652924757903  Uiso  ?  O
O1  1.0  0.21037275037685346  0.35813497658120375  0.5301043524450344  Uiso  ?  O
O1  1.0  0.2484019146184431  0.35591548246553173  0.5288766484111272  Uiso  ?  O
O1  1.0  0.21012544604059422  0.3202962148074529  0.4924304174230391  Uiso  ?  O
O1  1.0  0.2483863037125851  0.3206922549182123  0.4914255288563444  Uiso  ?  O
O1  1.0  0.21138796463837672  0.3570259977875989  0.49437870195970124  Uiso  ?  O
O1  1.0  0.24648263510595336  0.3570480035488204  0.49386697632873644  Uiso  ?  O
Ce1  1.0  0.19293183446470638  0.30485122674894627  0.47275933972103934  Uiso  ?  Ce
Ce1  1.0  0.19091820991030706  0.3392977618391487  0.4368701565593393  Uiso  ?  Ce
Ce1  1.0  0.22717732710428823  0.303458610109074  0.43624630649097074  Uiso  ?  Ce
Ce1  1.0  0.22878623645397705  0.3408464100654302  0.47603697817177215  Uiso  ?  Ce
O1  1.0  0.21113734872586756  0.3179981023854436  0.45811092826584215  Uiso  ?  O
O1  1.0  0.2489283819867238  0.31868981225967635  0.4572344913760998  Uiso  ?  O
O1  1.0  0.21033645674845805  0.3556402089861883  0.4559680589451279  Uiso  ?  O
O1  1.0  0.24538007483077123  0.3576743265632838  0.4564520351996911  Uiso  ?  O
O1  1.0  0.2134790900023248  0.3210814173453211  0.41891414880087136  Uiso  ?  O
O1  1.0  0.24736963486519456  0.3196402296542391  0.4209499867706932  Uiso  ?  O
O1  1.0  0.20852859966012124  0.3559510231112364  0.42152281390316365  Uiso  ?  O
O1  1.0  0.24919477630570255  0.3560151653482943  0.4216403777202451  Uiso  ?  O
Ce1  1.0  0.19321294652216128  0.30153228358464257  0.4020750199225702  Uiso  ?  Ce
Ce1  1.0  0.19317368770581028  0.3384963844837734  0.36237854575478945  Uiso  ?  Ce
Ce1  1.0  0.2294010019670361  0.30351683248853195  0.36362342885806975  Uiso  ?  Ce
Ce1  1.0  0.2271177083573105  0.3389227782519582  0.40239031499535866  Uiso  ?  Ce
O1  1.0  0.21221077701400407  0.32183791768758135  0.3826099793742212  Uiso  ?  O
O1  1.0  0.2472910491013668  0.31853674127138154  0.3822569195289899  Uiso  ?  O
O1  1.0  0.2075959353621861  0.35743547703362305  0.3812329585078779  Uiso  ?  O
O1  1.0  0.24882947806285946  0.3562280839223592  0.3808503266941074  Uiso  ?  O
O1  1.0  0.2113325624652684  0.3199781424346322  0.34607152197724234  Uiso  ?  O
O1  1.0  0.2500273135303292  0.32019547850553276  0.3457855553164779  Uiso  ?  O
O1  1.0  0.21215420994355003  0.3575193041704711  0.34502388904987374  Uiso  ?  O
O1  1.0  0.24929287108367845  0.3591365071715914  0.34440997795983597  Uiso  ?  O
Ce1  1.0  0.19167161687808099  0.29989721537907316  0.3264282108054903  Uiso  ?  Ce
Ce1  1.0  0.19238799921807892  0.3372730813788451  0.28951278978653366  Uiso  ?  Ce
Ce1  1.0  0.22943602666174176  0.30038763781767763  0.28916395635016107  Uiso  ?  Ce
Ce1  1.0  0.22935542756679217  0.34121245604227507  0.32436666915209633  Uiso  ?  Ce
O1  1.0  0.21172439495424347  0.3196202048148206  0.30757433638084086  Uiso  ?  O
O1  1.0  0.24745488998512072  0.31982146472490147  0.30809993930519136  Uiso  ?  O
O1  1.0  0.21107410000830834  0.35719536738449226  0.3073067017728947  Uiso  ?  O
O1  1.0  0.24734988427427498  0.3573419892044861  0.3091857546738672  Uiso  ?  O
O1  1.0  0.21066759138932364  0.32075183963105974  0.27129489203966994  Uiso  ?  O
O1  1.0  0.24604782451706778  0.323373053968301  0.27186982225212997  Uiso  ?  O
O1  1.0  0.2145194781404794  0.35549555953259787  0.2706416344026292  Uiso  ?  O
O1  1.0  0.2471230851695165  0.3575867261149475  0.2723422713757817  Uiso  ?  O
Ce1  1.0  0.19165634906801504  0.3029919254892017  0.25413968447329066  Uiso  ?  Ce
Ce1  1.0  0.19284305814134345  0.3387865544775142  0.21445062040341922  Uiso  ?  Ce
Ce1  1.0  0.22839432344266383  0.30104111444510484  0.2164601998630872  Uiso  ?  Ce
Ce1  1.0  0.22684300955488756  0.34001109879060404  0.25310642644835296  Uiso  ?  Ce
O1  1.0  0.21227373205010516  0.319771561034113  0.23060468650138352  Uiso  ?  O
O1  1.0  0.24535274225917672  0.3214669053239748  0.23207084921645016  Uiso  ?  O
O1  1.0  0.21333330814511334  0.3562920446794249  0.23321031223253275  Uiso  ?  O
O1  1.0  0.2485614931969097  0.3594132474559412  0.23370333988338943  Uiso  ?  O
O1  1.0  0.21264902000752564  0.3194744314788511  0.19570394959472245  Uiso  ?  O
O1  1.0  0.24791047336474684  0.3224028759015306  0.19691402414086925  Uiso  ?  O
O1  1.0  0.21157520297437876  0.3582120462415746  0.19888005250205454  Uiso  ?  O
O1  1.0  0.24653755609468853  0.35612557966641356  0.19771702234940675  Uiso  ?  O
Ce1  1.0  0.19168497058409772  0.3028173367474089  0.17676833382301324  Uiso  ?  Ce
Ce1  1.0  0.23226806422808488  0.34022477841796567  0.17898471089989215  Uiso  ?  Ce
Ce1  1.0  0.2661896898427928  0.33813002995665264  0.8097703879196493  Uiso  ?  Ce
Ce1  1.0  0.30328047361932325  0.3031845063644427  0.8084954972789377  Uiso  ?  Ce
O1  1.0  0.28393363145040657  0.32133344979989614  0.8247446328844743  Uiso  ?  O
O1  1.0  0.32206023610012274  0.31960244873045207  0.8233799263584832  Uiso  ?  O
O1  1.0  0.2879078549941324  0.35578112218372016  0.8238405323415298  Uiso  ?  O
O1  1.0  0.32337947667737704  0.35688016586922766  0.8249386222624278  Uiso  ?  O
O1  1.0  0.28576322876078647  0.3187410172443681  0.7904998281531559  Uiso  ?  O
O1  1.0  0.318918818001432  0.31872468649408797  0.7898986460908851  Uiso  ?  O
O1  1.0  0.28449443323834367  0.35716962529194024  0.7905922788654612  Uiso  ?  O
O1  1.0  0.32148756325205247  0.35691471733390623  0.7885254740723825  Uiso  ?  O
Ce1  1.0  0.26731456996207564  0.300004459381187  0.771519152855338  Uiso  ?  Ce
Ce1  1.0  0.2670166136190613  0.33838638093088597  0.7329734175307879  Uiso  ?  Ce
Ce1  1.0  0.3043479221210333  0.2998088615720096  0.7348808661828814  Uiso  ?  Ce
Ce1  1.0  0.3046993351263332  0.33984646304071614  0.7703240692935738  Uiso  ?  Ce
O1  1.0  0.2863909990596577  0.3211131792784106  0.7527748760799232  Uiso  ?  O
O1  1.0  0.3225860133678631  0.3199169693138905  0.7513332042451829  Uiso  ?  O
O1  1.0  0.2851038599796578  0.3551753728666733  0.7532245106979191  Uiso  ?  O
O1  1.0  0.3235061339035674  0.35826810970245404  0.7504602891711843  Uiso  ?  O
O1  1.0  0.2866193151149989  0.3193372684207696  0.7185385708868253  Uiso  ?  O
O1  1.0  0.3221695287460425  0.3206495045574901  0.7175256595666489  Uiso  ?  O
O1  1.0  0.2833455495548561  0.3589845581934852  0.7148289158070367  Uiso  ?  O
O1  1.0  0.32188929853874615  0.3575381761514772  0.7139049894521023  Uiso  ?  O
Ce1  1.0  0.2679245621120553  0.2994718117847516  0.6987775146547937  Uiso  ?  Ce
Ce1  1.0  0.2682675187109141  0.3400318346851521  0.661241658165672  Uiso  ?  Ce
Ce1  1.0  0.303031522028439  0.30070528558732024  0.6609320844246946  Uiso  ?  Ce
Ce1  1.0  0.3016024919989231  0.3401209857475887  0.6977545453574593  Uiso  ?  Ce
O1  1.0  0.284952907755816  0.32066618388692486  0.67744669811422  Uiso  ?  O
O1  1.0  0.3229858568946522  0.3228050763590433  0.6788408590481286  Uiso  ?  O
O1  1.0  0.2850187273070793  0.35600734978860976  0.680477074155751  Uiso  ?  O
O1  1.0  0.32170046943325836  0.35968866132721383  0.6787832536335288  Uiso  ?  O
O1  1.0  0.28291421287260465  0.3214010688759096  0.642530661157868  Uiso  ?  O
O1  1.0  0.3230416257785777  0.32230872901543595  0.6417659082767198  Uiso  ?  O
O1  1.0  0.2856820716913384  0.35894445561627053  0.641021944514207  Uiso  ?  O
O1  1.0  0.32233686537415057  0.3531167282517573  0.642297768328443  Uiso  ?  O
Ce1  1.0  0.26548403028236545  0.3004264783798035  0.6235519685892561  Uiso  ?  Ce
Ce1  1.0  0.26498657769998835  0.3393547557999533  0.5858466847781664  Uiso  ?  Ce
Ce1  1.0  0.30215400232822553  0.2986403715115291  0.5875900180604534  Uiso  ?  Ce
Ce1  1.0  0.3030636292300577  0.3386717770122288  0.6247210477944386  Uiso  ?  Ce
O1  1.0  0.2832952808186204  0.31857230483040777  0.6064447078172277  Uiso  ?  O
O1  1.0  0.3222990838332036  0.3192210757553315  0.6055529058511439  Uiso  ?  O
O1  1.0  0.2860315911043557  0.3558169599848103  0.6054501306862361  Uiso  ?  O
O1  1.0  0.3214337868959153  0.35643923126534505  0.6060207760271882  Uiso  ?  O
O1  1.0  0.28610865139581476  0.32029360545482244  0.566415444616177  Uiso  ?  O
O1  1.0  0.3240861692181976  0.31724005245227804  0.5670063639269692  Uiso  ?  O
O1  1.0  0.2864432663814417  0.3594183386342361  0.5679636925977077  Uiso  ?  O
O1  1.0  0.32453327943411686  0.35719533573622675  0.5669120747370944  Uiso  ?  O
Ce1  1.0  0.2672006784537922  0.3004282759543386  0.5492749196657613  Uiso  ?  Ce
Ce1  1.0  0.2674295733869407  0.3401504900684014  0.5134503202604851  Uiso  ?  Ce
Ce1  1.0  0.30413780934690804  0.30163909338099715  0.5121579337505716  Uiso  ?  Ce
Ce1  1.0  0.302857140105397  0.33780774099050365  0.5499761120531538  Uiso  ?  Ce
O1  1.0  0.28532867877849494  0.32054709337458365  0.5308876965768864  Uiso  ?  O
O1  1.0  0.3220876557323207  0.3219994955866437  0.5262283510878699  Uiso  ?  O
O1  1.0  0.285851291273821  0.35450611349646177  0.5299426321223567  Uiso  ?  O
O1  1.0  0.32045099813819744  0.3582424692733829  0.5286121675215825  Uiso  ?  O
O1  1.0  0.28776015018439316  0.32144343041272516  0.49385036666308935  Uiso  ?  O
O1  1.0  0.32234570482434516  0.3209053764740525  0.4935423819067777  Uiso  ?  O
O1  1.0  0.2843525197694572  0.3538666909901775  0.49374086949008067  Uiso  ?  O
O1  1.0  0.32174117660446666  0.3591796001428828  0.49233264140925526  Uiso  ?  O
Ce1  1.0  0.26633380318811245  0.3025245315023358  0.473268432815052  Uiso  ?  Ce
Ce1  1.0  0.26735543881912843  0.3406527437707081  0.4391590689732217  Uiso  ?  Ce
Ce1  1.0  0.30615667951370534  0.3007914414936282  0.43972511868197883  Uiso  ?  Ce
Ce1  1.0  0.30478503932880924  0.3399209725254564  0.47272718560407206  Uiso  ?  Ce
O1  1.0  0.2834523368697784  0.320025737435451  0.45741139794276914  Uiso  ?  O
O1  1.0  0.32077229443566707  0.3189530305352177  0.4537954835004832  Uiso  ?  O
O1  1.0  0.28307081918957777  0.3569530971680369  0.4548901134063658  Uiso  ?  O
O1  1.0  0.3233312703471132  0.3564320450410205  0.4563261040405448  Uiso  ?  O
O1  1.0  0.2851818832883013  0.3198171492399388  0.4198086218990338  Uiso  ?  O
O1  1.0  0.32061286823830926  0.31866669707545553  0.41730367663513707  Uiso  ?  O
O1  1.0  0.285595921152332  0.3565751945576814  0.4206257577156104  Uiso  ?  O
O1  1.0  0.32352089719823124  0.3554500188579247  0.42158069143171145  Uiso  ?  O
Ce1  1.0  0.2658575218000498  0.3021255231509622  0.40043140686856155  Uiso  ?  Ce
Ce1  1.0  0.2671891533840095  0.34019960068421584  0.362732380894208  Uiso  ?  Ce
Ce1  1.0  0.30181665981055894  0.302733528773083  0.3623166246436923  Uiso  ?  Ce
Ce1  1.0  0.30186935060149206  0.33762589695764966  0.3998299635680316  Uiso  ?  Ce
O1  1.0  0.28623017011267043  0.32094353917800483  0.3818448005585722  Uiso  ?  O
O1  1.0  0.321190776691676  0.31971766934874957  0.3815966645812466  Uiso  ?  O
O1  1.0  0.284255554926942  0.359160531523615  0.3819686883486703  Uiso  ?  O
O1  1.0  0.3226895217952211  0.3564462293919976  0.38327886021192364  Uiso  ?  O
O1  1.0  0.2837455791874487  0.31912235286270374  0.34357127892526074  Uiso  ?  O
O1  1.0  0.32299006734862373  0.31878940162699043  0.3438897738373392  Uiso  ?  O
O1  1.0  0.28503672135164126  0.35860222750946574  0.3452821214187854  Uiso  ?  O
O1  1.0  0.32311365496075484  0.35932330258009565  0.3448500059171997  Uiso  ?  O
Ce1  1.0  0.2672761012791071  0.3022550607670936  0.32521211947255674  Uiso  ?  Ce
Ce1  1.0  0.26867361539343926  0.33897082785895183  0.2874166577757845  Uiso  ?  Ce
Ce1  1.0  0.30382484775286484  0.2976407210364447  0.2881635584873826  Uiso  ?  Ce
Ce1  1.0  0.304990887655616  0.34059497144382433  0.3257284931963765  Uiso  ?  Ce
O1  1.0  0.28568811630800584  0.3199536864883816  0.3081538860080912  Uiso  ?  O
O1  1.0  0.32155879104990603  0.31978878189928556  0.3062451175773651  Uiso  ?  O
O1  1.0  0.2857691905737041  0.35665664637695926  0.3104024956140549  Uiso  ?  O
O1  1.0  0.322084711084123  0.3600392856518452  0.308400401100159  Uiso  ?  O
O1  1.0  0.28590902809894625  0.322054936084117  0.27005820233651473  Uiso  ?  O
O1  1.0  0.3226981677394749  0.3191064597691484  0.2709983340264718  Uiso  ?  O
O1  1.0  0.28352440653801464  0.3563208385486546  0.26956989770971373  Uiso  ?  O
O1  1.0  0.3220492981971444  0.355304262401814  0.2699344867101068  Uiso  ?  O
Ce1  1.0  0.2650061726136271  0.3033999340703741  0.25175826915115396  Uiso  ?  Ce
Ce1  1.0  0.2654070590967019  0.33783770924837997  0.21403916737725973  Uiso  ?  Ce
Ce1  1.0  0.30384748818823104  0.3017126553581334  0.2157673611783815  Uiso  ?  Ce
Ce1  1.0  0.30382183143322306  0.339769745754113  0.25038583116765895  Uiso  ?  Ce
O1  1.0  0.28292662684600556  0.32008097772292604  0.2318569427975595  Uiso  ?  O
O1  1.0  0.32445636884373436  0.3199488783758741  0.23255190401006112  Uiso  ?  O
O1  1.0  0.28220753406476273  0.3577809535805428  0.2328968842602895  Uiso  ?  O
O1  1.0  0.32415216848118333  0.3561394822575595  0.23248992845762745  Uiso  ?  O
O1  1.0  0.2848439642757515  0.32179473429840205  0.19554723730615892  Uiso  ?  O
O1  1.0  0.32255584881032157  0.31954577481929797  0.19600559946604804  Uiso  ?  O
O1  1.0  0.28442691915655277  0.3601676705382162  0.1967841294338209  Uiso  ?  O
O1  1.0  0.3240210073000373  0.3548087476109734  0.1953628130754788  Uiso  ?  O
Ce1  1.0  0.2674783165628565  0.3021757888385778  0.17684909278912886  Uiso  ?  Ce
Ce1  1.0  0.3038525571008632  0.34236266233262314  0.18069262854071982  Uiso  ?  Ce
Ce1  1.0  0.34223809892998774  0.3423268482127258  0.8059865651346145  Uiso  ?  Ce
Ce1  1.0  0.37773474042133093  0.3022140976440579  0.808969084005228  Uiso  ?  Ce
O1  1.0  0.3598661831105074  0.3205337557073681  0.825712162397429  Uiso  ?  O
O1  1.0  0.3983559878452821  0.322572344913888  0.8276187089729129  Uiso  ?  O
O1  1.0  0.3621939802794323  0.35712310342476966  0.8259434064502232  Uiso  ?  O
O1  1.0  0.39732348259920464  0.35698130636877695  0.8275620286041871  Uiso  ?  O
O1  1.0  0.357642226107818  0.3197690052652441  0.7904362195471223  Uiso  ?  O
O1  1.0  0.3967003207611084  0.3195325238757877  0.7897442192733851  Uiso  ?  O
O1  1.0  0.35925593610684503  0.3569830645157995  0.7899478889636592  Uiso  ?  O
O1  1.0  0.39586778324490896  0.35725251784880707  0.7906380961467521  Uiso  ?  O
Ce1  1.0  0.33847674275167955  0.30294207507697524  0.7711438651281817  Uiso  ?  Ce
Ce1  1.0  0.34045809588537823  0.33819141112068585  0.7335883543341988  Uiso  ?  Ce
Ce1  1.0  0.3757927959460888  0.30299339253054247  0.7336882623718332  Uiso  ?  Ce
Ce1  1.0  0.3767842179435392  0.3377270230244713  0.7711073585618584  Uiso  ?  Ce
O1  1.0  0.3579878605282104  0.3207392305951432  0.7552239229352169  Uiso  ?  O
O1  1.0  0.3978308121795359  0.32278193260866533  0.751100125177861  Uiso  ?  O
O1  1.0  0.3605250516608118  0.3571321619262449  0.7541766872914422  Uiso  ?  O
O1  1.0  0.39647395179493805  0.35854074369359384  0.7516576399280921  Uiso  ?  O
O1  1.0  0.35966318411422854  0.321714164040737  0.7169227469671676  Uiso  ?  O
O1  1.0  0.3972930031232919  0.3192363628216383  0.7167925506136988  Uiso  ?  O
O1  1.0  0.36064540153516783  0.35697275884494245  0.7169511550168178  Uiso  ?  O
O1  1.0  0.3990022424871981  0.3590340552055128  0.7160760549433534  Uiso  ?  O
Ce1  1.0  0.3428251751968914  0.2998608959264299  0.6972634801102995  Uiso  ?  Ce
Ce1  1.0  0.3428458187601169  0.3388327336367008  0.6592856234901582  Uiso  ?  Ce
Ce1  1.0  0.37841563049246624  0.30367051561366165  0.659071958059531  Uiso  ?  Ce
Ce1  1.0  0.37819971494546  0.33913829647968885  0.6986415474626299  Uiso  ?  Ce
O1  1.0  0.35750043953530725  0.3224425863368372  0.6774094346688838  Uiso  ?  O
O1  1.0  0.397453428589381  0.3199983752864553  0.6790766362029546  Uiso  ?  O
O1  1.0  0.3586506212961773  0.35862277549215466  0.6778892683005532  Uiso  ?  O
O1  1.0  0.3949161766242666  0.35671287379076405  0.6775374100654362  Uiso  ?  O
O1  1.0  0.3588522966145075  0.31849712805351293  0.6399392041465615  Uiso  ?  O
O1  1.0  0.3956614929599997  0.3197261830978873  0.6422444498331572  Uiso  ?  O
O1  1.0  0.35978602996618814  0.35639714651466115  0.6411815243355495  Uiso  ?  O
O1  1.0  0.3998095177686341  0.35876025318606136  0.6394988396048306  Uiso  ?  O
Ce1  1.0  0.33920553107951745  0.3052679887197182  0.6222071516984917  Uiso  ?  Ce
Ce1  1.0  0.3431985112238095  0.3399624210081617  0.5846568974768929  Uiso  ?  Ce
Ce1  1.0  0.3765798486995734  0.30176727057848746  0.5857855227941025  Uiso  ?  Ce
Ce1  1.0  0.37888031506874575  0.33910886091355413  0.6229312748015949  Uiso  ?  Ce
O1  1.0  0.35890894019439284  0.3199438262873507  0.6051419869334852  Uiso  ?  O
O1  1.0  0.39521767816943415  0.3221853357738484  0.6038152742460347  Uiso  ?  O
O1  1.0  0.3598394457714687  0.35856791211912586  0.6032783082475854  Uiso  ?  O
O1  1.0  0.3956483623047252  0.3573983005096584  0.6021490737647408  Uiso  ?  O
O1  1.0  0.35885788609727337  0.3202916859267389  0.5652478959100359  Uiso  ?  O
O1  1.0  0.3974421564716182  0.32167498901477554  0.5656521233399816  Uiso  ?  O
O1  1.0  0.3581327332357706  0.3565672910007259  0.5667852092907236  Uiso  ?  O
O1  1.0  0.3932465267224237  0.35632110909729947  0.5672778748254772  Uiso  ?  O
Ce1  1.0  0.34257175549145624  0.30412467720547876  0.5481664750523824  Uiso  ?  Ce
Ce1  1.0  0.34085136028478447  0.3386042864773967  0.5110058451410159  Uiso  ?  Ce
Ce1  1.0  0.37936076809472086  0.3016615795173102  0.5115677786845088  Uiso  ?  Ce
Ce1  1.0  0.3774005196160159  0.3381695142124884  0.5472481196519742  Uiso  ?  Ce
O1  1.0  0.35784345208284374  0.32323025170845376  0.5335519613468961  Uiso  ?  O
O1  1.0  0.3969822322558028  0.3208296557058153  0.5305987376598359  Uiso  ?  O
O1  1.0  0.36044127617736077  0.35953226461406673  0.528757078995799  Uiso  ?  O
O1  1.0  0.3945660314107109  0.35676967070098037  0.5298715777456402  Uiso  ?  O
O1  1.0  0.35848636136365425  0.3213306331572699  0.49418483348824455  Uiso  ?  O
O1  1.0  0.39734120705527043  0.32045110402299476  0.49363004193287324  Uiso  ?  O
O1  1.0  0.3597907520685772  0.35782467134325235  0.49428602015632134  Uiso  ?  O
O1  1.0  0.3980775890525043  0.3575324697916788  0.49257980961416203  Uiso  ?  O
Ce1  1.0  0.34287510726018144  0.3011810135837494  0.47331358350006963  Uiso  ?  Ce
Ce1  1.0  0.3428612132464375  0.3397172678569186  0.4357400379170066  Uiso  ?  Ce
Ce1  1.0  0.37802637043371595  0.30022795854702794  0.43869274690469295  Uiso  ?  Ce
Ce1  1.0  0.37623009382592076  0.33986509087816824  0.474934328224938  Uiso  ?  Ce
O1  1.0  0.3589954676196568  0.32071121533075525  0.45373153265089927  Uiso  ?  O
O1  1.0  0.39580210935529175  0.32059692770069287  0.4562815683122758  Uiso  ?  O
O1  1.0  0.35883113394960514  0.35987667483615565  0.4551521141295062  Uiso  ?  O
O1  1.0  0.39665910684449474  0.3596202413557407  0.45338337391633576  Uiso  ?  O
O1  1.0  0.3575959655175648  0.32254918430290136  0.42029928822069246  Uiso  ?  O
O1  1.0  0.3986571213044107  0.3199585908706689  0.4186609078606941  Uiso  ?  O
O1  1.0  0.3588391077138265  0.3603782205929009  0.4189874270650954  Uiso  ?  O
O1  1.0  0.392504284782597  0.35712517173271874  0.4170449208708514  Uiso  ?  O
Ce1  1.0  0.3419467195258819  0.302451578115254  0.39869442544549555  Uiso  ?  Ce
Ce1  1.0  0.3410682468205358  0.3376434570392943  0.36256197936730716  Uiso  ?  Ce
Ce1  1.0  0.37718548161463117  0.30277583432695065  0.36446772804268945  Uiso  ?  Ce
Ce1  1.0  0.3768815415618629  0.3393949285035906  0.3996278000047127  Uiso  ?  Ce
O1  1.0  0.35896550933395405  0.3183370387460123  0.3801145766542951  Uiso  ?  O
O1  1.0  0.3972630821675785  0.3207099174074898  0.38259603581819396  Uiso  ?  O
O1  1.0  0.35908681481342836  0.3575130365908686  0.38216995332606846  Uiso  ?  O
O1  1.0  0.3938945567789173  0.3608982883259659  0.38351465620346187  Uiso  ?  O
O1  1.0  0.3598618068278217  0.32194502635528355  0.3435985290932286  Uiso  ?  O
O1  1.0  0.3960841579157234  0.3222786400724764  0.34424431488099916  Uiso  ?  O
O1  1.0  0.3573061001002184  0.3582680670143859  0.34609935073502035  Uiso  ?  O
O1  1.0  0.39731225358593303  0.35752931783357383  0.3434587042401154  Uiso  ?  O
Ce1  1.0  0.3424703238265064  0.3033032832950162  0.32682623119730914  Uiso  ?  Ce
Ce1  1.0  0.34114718332466093  0.33703344543887787  0.2916962812343671  Uiso  ?  Ce
Ce1  1.0  0.3789242804984285  0.30141420819602055  0.2888411765153615  Uiso  ?  Ce
Ce1  1.0  0.37870727446243035  0.33814625106104135  0.32719924955834745  Uiso  ?  Ce
O1  1.0  0.35972303864107236  0.31814492054182375  0.3052652563195775  Uiso  ?  O
O1  1.0  0.3963022218423467  0.32218329242978505  0.3086407283258258  Uiso  ?  O
O1  1.0  0.35957921270597476  0.35672627367770987  0.31072930500797097  Uiso  ?  O
O1  1.0  0.3968361922360496  0.35784074851606984  0.30802765527370213  Uiso  ?  O
O1  1.0  0.3572391459427683  0.32164757281063616  0.2717679759959494  Uiso  ?  O
O1  1.0  0.3986585325263412  0.31986403717426526  0.27157163091765985  Uiso  ?  O
O1  1.0  0.3578642815855276  0.35813264834488284  0.2706505254839537  Uiso  ?  O
O1  1.0  0.3957613601758084  0.3576116025786756  0.271489407075986  Uiso  ?  O
Ce1  1.0  0.33880497588374764  0.30244632161102536  0.2500579484895606  Uiso  ?  Ce
Ce1  1.0  0.3440004046377672  0.3402926805136153  0.21490534866592859  Uiso  ?  Ce
Ce1  1.0  0.3773478982020234  0.30113019300403016  0.21615965548513855  Uiso  ?  Ce
Ce1  1.0  0.3793070058935945  0.33727055509644904  0.25107495314296946  Uiso  ?  Ce
O1  1.0  0.35949848485065916  0.3195839516364865  0.23455665874967993  Uiso  ?  O
O1  1.0  0.39708438329183815  0.32050290375632406  0.23524178292521605  Uiso  ?  O
O1  1.0  0.3593014710426623  0.3568216025752575  0.23170149701668172  Uiso  ?  O
O1  1.0  0.39526191477082945  0.3568325222539515  0.23515156846639712  Uiso  ?  O
O1  1.0  0.3578388750969781  0.32070363347863967  0.19613114431015696  Uiso  ?  O
O1  1.0  0.3979560721926979  0.32087946996912725  0.19872784759589396  Uiso  ?  O
O1  1.0  0.3604404646579525  0.3588091469492128  0.199286263088794  Uiso  ?  O
O1  1.0  0.39697323444111005  0.35923907170337516  0.19504563055836407  Uiso  ?  O
Ce1  1.0  0.3395792356180064  0.30118642655344713  0.17725988867499817  Uiso  ?  Ce
Ce1  1.0  0.37750630886506314  0.3380802340333268  0.17730485898995993  Uiso  ?  Ce
Ce1  1.0  0.4137715422727461  0.33854340752986456  0.8096126258527646  Uiso  ?  Ce
Ce1  1.0  0.4521751230706086  0.30180433471023344  0.8072559421170165  Uiso  ?  Ce
O1  1.0  0.43155021397190607  0.31905283846394455  0.8271405327611265  Uiso  ?  O
O1  1.0  0.4716465108596735  0.31973303761368854  0.8273687246017167  Uiso  ?  O
O1  1.0  0.43305004123679885  0.3594647392946988  0.8273911854961553  Uiso  ?  O
O1  1.0  0.4715054158841255  0.35726771196258705  0.8283314206960556  Uiso  ?  O
O1  1.0  0.433884282088475  0.32024864910169737  0.790206738052406  Uiso  ?  O
O1  1.0  0.47078106314937773  0.3215416155235737  0.7901878754527221  Uiso  ?  O
O1  1.0  0.43573307541214246  0.35727402830063376  0.7905460578935198  Uiso  ?  O
O1  1.0  0.47199628396250626  0.35779288862072867  0.7882141598307443  Uiso  ?  O
Ce1  1.0  0.41700346407866684  0.3054566758647179  0.771632129503909  Uiso  ?  Ce
Ce1  1.0  0.41596685302584085  0.3399089089289725  0.7326402686346263  Uiso  ?  Ce
Ce1  1.0  0.4530665466582824  0.30380980324583207  0.7324842321865516  Uiso  ?  Ce
Ce1  1.0  0.4527376190642835  0.33821078607574423  0.7717605596150089  Uiso  ?  Ce
O1  1.0  0.43623878215259704  0.32131979137283806  0.752325674619622  Uiso  ?  O
O1  1.0  0.46735363689798987  0.3207475634238004  0.7518417739566315  Uiso  ?  O
O1  1.0  0.4341746611957346  0.35745163782509787  0.7558322938263048  Uiso  ?  O
O1  1.0  0.46885131153676757  0.358536772398751  0.7522685243821388  Uiso  ?  O
O1  1.0  0.4331934440224816  0.31954303236758097  0.7153920737115598  Uiso  ?  O
O1  1.0  0.47116955846611613  0.32099823004975064  0.7153349411628696  Uiso  ?  O
O1  1.0  0.4335130010123313  0.3570372643778786  0.7145496466242558  Uiso  ?  O
O1  1.0  0.47063015532519575  0.35599632580582014  0.7152822889440267  Uiso  ?  O
Ce1  1.0  0.41337553938172666  0.3026993956820317  0.6958106042664061  Uiso  ?  Ce
Ce1  1.0  0.4130312624469567  0.33711858344449175  0.6605185566615945  Uiso  ?  Ce
Ce1  1.0  0.45222476480350343  0.303748389411896  0.6613987752745213  Uiso  ?  Ce
Ce1  1.0  0.45385904169015984  0.3402312163158866  0.6948698262355031  Uiso  ?  Ce
O1  1.0  0.43404449046189714  0.32289645102262965  0.6769786663570958  Uiso  ?  O
O1  1.0  0.4714898461969908  0.3206894536872896  0.6780873924658702  Uiso  ?  O
O1  1.0  0.43219543287990764  0.3570746082963714  0.678216130457824  Uiso  ?  O
O1  1.0  0.4693368357126631  0.35911727584742875  0.6797105879329545  Uiso  ?  O
O1  1.0  0.43505526590586613  0.32177305786463356  0.6421294300959638  Uiso  ?  O
O1  1.0  0.47003462733492113  0.32189827630414813  0.642877158520097  Uiso  ?  O
O1  1.0  0.4322255623332697  0.3584307448802645  0.6406288634815832  Uiso  ?  O
O1  1.0  0.47102542910236  0.35931789311518963  0.6415002366068718  Uiso  ?  O
Ce1  1.0  0.4153522703044287  0.3028234358040699  0.6215434794034123  Uiso  ?  Ce
Ce1  1.0  0.4164411804774659  0.3387219020703145  0.5886597815814942  Uiso  ?  Ce
Ce1  1.0  0.449918895978118  0.30191752735365907  0.5846937880137161  Uiso  ?  Ce
Ce1  1.0  0.45228856245443627  0.3397076874423072  0.6240778229539822  Uiso  ?  Ce
O1  1.0  0.43426454188922664  0.3205275281098376  0.6030474870724956  Uiso  ?  O
O1  1.0  0.4748505600056784  0.31902549844073197  0.6042513131814026  Uiso  ?  O
O1  1.0  0.4345301684418211  0.3536480372583981  0.6028342734637357  Uiso  ?  O
O1  1.0  0.4723573801207367  0.35778028242136395  0.6044129590332267  Uiso  ?  O
O1  1.0  0.4325697328389331  0.3196739558442645  0.5667378523616659  Uiso  ?  O
O1  1.0  0.4712578771978913  0.3203134367581413  0.5668188888576371  Uiso  ?  O
O1  1.0  0.43299853043868014  0.3582306873340523  0.5676527715326217  Uiso  ?  O
O1  1.0  0.47014012277654105  0.3580958438966313  0.5661718987991124  Uiso  ?  O
Ce1  1.0  0.41196541748208015  0.3006496030760176  0.5472178608913122  Uiso  ?  Ce
Ce1  1.0  0.4145904836088502  0.33926575720650304  0.5118330067346331  Uiso  ?  Ce
Ce1  1.0  0.4500203312164175  0.30307350590988574  0.5119714539565867  Uiso  ?  Ce
Ce1  1.0  0.45244740011661655  0.3396339873029917  0.5487298869196616  Uiso  ?  Ce
O1  1.0  0.43037042398380315  0.31907771912615396  0.5281034915384092  Uiso  ?  O
O1  1.0  0.47260849919912956  0.32152336002429854  0.5303284654333179  Uiso  ?  O
O1  1.0  0.4339109234302577  0.35849945884415996  0.5293237122322612  Uiso  ?  O
O1  1.0  0.46940842104968755  0.35734341124118274  0.5317042998578845  Uiso  ?  O
O1  1.0  0.43444846424859523  0.3199431198496092  0.49431114952098865  Uiso  ?  O
O1  1.0  0.46948765553274335  0.31983840951523207  0.49316332834977533  Uiso  ?  O
O1  1.0  0.4353955607127702  0.35497992104094744  0.4933681831609712  Uiso  ?  O
O1  1.0  0.4725735631369597  0.3589803772976355  0.49320960064137914  Uiso  ?  O
Ce1  1.0  0.4142714702449711  0.30349090102439796  0.4751494943909389  Uiso  ?  Ce
Ce1  1.0  0.417804861467425  0.3394902616817382  0.4380234997471641  Uiso  ?  Ce
Ce1  1.0  0.45149924740831443  0.2999388382841794  0.4365143874574789  Uiso  ?  Ce
Ce1  1.0  0.4518259754947483  0.33890336640058505  0.47373743088339276  Uiso  ?  Ce
O1  1.0  0.43316757363248526  0.3210216417526896  0.45623023052914036  Uiso  ?  O
O1  1.0  0.47074884701780856  0.3210511765120491  0.4550275785830769  Uiso  ?  O
O1  1.0  0.43434953918095703  0.35806518140035126  0.45576448840236733  Uiso  ?  O
O1  1.0  0.47117817587202215  0.3567642829778711  0.4551780676830177  Uiso  ?  O
O1  1.0  0.4322103775010506  0.31956595915177444  0.42064142856822734  Uiso  ?  O
O1  1.0  0.4694977130626548  0.32155438328624714  0.4189449643168056  Uiso  ?  O
O1  1.0  0.4334336475972185  0.35760711231559866  0.42054110740835443  Uiso  ?  O
O1  1.0  0.47318960247648684  0.35829772497195855  0.4198015430548757  Uiso  ?  O
Ce1  1.0  0.41509473849382994  0.3021999295466526  0.4016458688909978  Uiso  ?  Ce
Ce1  1.0  0.41580122911586637  0.337752450991528  0.3617652681510803  Uiso  ?  Ce
Ce1  1.0  0.45116339572275216  0.30284454790586784  0.36618205368923645  Uiso  ?  Ce
Ce1  1.0  0.451529859984894  0.341750203210263  0.40110548246926303  Uiso  ?  Ce
O1  1.0  0.43376286366824857  0.3207786571910391  0.3829068831943979  Uiso  ?  O
O1  1.0  0.47097375124570773  0.320842058218996  0.38211790027721776  Uiso  ?  O
O1  1.0  0.4330818393122402  0.35862670306312266  0.3789521774317952  Uiso  ?  O
O1  1.0  0.4695914556229274  0.3590710201645542  0.38216912734933073  Uiso  ?  O
O1  1.0  0.43174820429164384  0.3214570009584676  0.3442940360702335  Uiso  ?  O
O1  1.0  0.47096371892547867  0.32225522812686586  0.3454472958307927  Uiso  ?  O
O1  1.0  0.4350750076655965  0.3574540243504399  0.34583471007496774  Uiso  ?  O
O1  1.0  0.47189849551380425  0.35744844793929426  0.34466459750908507  Uiso  ?  O
Ce1  1.0  0.41486790553516617  0.30020951905609516  0.32538905622054926  Uiso  ?  Ce
Ce1  1.0  0.4119410484705928  0.3389311336592527  0.29011441302485735  Uiso  ?  Ce
Ce1  1.0  0.4506161829948012  0.30326416542249063  0.2890796031340508  Uiso  ?  Ce
Ce1  1.0  0.452519341875703  0.3378847768450781  0.3270089256212295  Uiso  ?  Ce
O1  1.0  0.4360538028803083  0.3206054141710409  0.30761657109500035  Uiso  ?  O
O1  1.0  0.47022733031615704  0.3190271610675429  0.31048717356881606  Uiso  ?  O
O1  1.0  0.43500669781489787  0.35555959161270684  0.30567241782080984  Uiso  ?  O
O1  1.0  0.4708759547240716  0.3570341872886715  0.3088621718944372  Uiso  ?  O
O1  1.0  0.4356048342483263  0.3207787962022949  0.2698211253359617  Uiso  ?  O
O1  1.0  0.47178144002822214  0.32004023042826285  0.27265795424369343  Uiso  ?  O
O1  1.0  0.43190545848207135  0.3575989169358038  0.27244190860717665  Uiso  ?  O
O1  1.0  0.47009711085191125  0.35840630206143476  0.2729444658980485  Uiso  ?  O
Ce1  1.0  0.4157123198156783  0.3009309195500613  0.2543117107784106  Uiso  ?  Ce
Ce1  1.0  0.41494867607976477  0.3399013898674427  0.21584102666289567  Uiso  ?  Ce
Ce1  1.0  0.45063493973661767  0.3039577441490729  0.21587499826089077  Uiso  ?  Ce
Ce1  1.0  0.4530526882821326  0.3398102217656027  0.2533377250312157  Uiso  ?  Ce
O1  1.0  0.43304369005833576  0.3205549328564807  0.23334103296388456  Uiso  ?  O
O1  1.0  0.46850725778462304  0.31942032201835485  0.23526296967423976  Uiso  ?  O
O1  1.0  0.43809350396248026  0.35854023848953953  0.235964223343458  Uiso  ?  O
O1  1.0  0.47104688916850973  0.35554084287548543  0.23386304284082834  Uiso  ?  O
O1  1.0  0.4340027346558784  0.32200053489224584  0.19878449812871046  Uiso  ?  O
O1  1.0  0.4703877597554186  0.321734316433926  0.19729802790815754  Uiso  ?  O
O1  1.0  0.4334366870441903  0.35767632898665347  0.1969873201826  Uiso  ?  O
O1  1.0  0.47067777685631823  0.3627722541528602  0.19603917145288816  Uiso  ?  O
Ce1  1.0  0.41564845391022043  0.30105705652648085  0.17788495756984346  Uiso  ?  Ce
Ce1  1.0  0.45553268574157496  0.3390448747904834  0.17928787636530538  Uiso  ?  Ce
Ce1  1.0  0.48988495273975047  0.3415062737281452  0.8070251153199297  Uiso  ?  Ce
Ce1  1.0  0.5260861292219235  0.30109802903142996  0.8092342881413893  Uiso  ?  Ce
O1  1.0  0.5075222100400412  0.31949394429878686  0.8269319495396967  Uiso  ?  O
O1  1.0  0.5447890327821555  0.31985767663279463  0.8291716043133862  Uiso  ?  O
O1  1.0  0.5079958926526887  0.35414987364175954  0.8261591363161126  Uiso  ?  O
O1  1.0  0.5455810738409207  0.35845169330907056  0.8263338987644963  Uiso  ?  O
O1  1.0  0.5092270672807635  0.3200437974847034  0.7918756692580132  Uiso  ?  O
O1  1.0  0.5427528525685412  0.32143403447426344  0.7898443273313882  Uiso  ?  O
O1  1.0  0.5079929829484702  0.35759951089062086  0.7888584757835619  Uiso  ?  O
O1  1.0  0.5448142274992798  0.35513173561614514  0.7882146984091022  Uiso  ?  O
Ce1  1.0  0.490044480888381  0.30146104953420766  0.7706403448891413  Uiso  ?  Ce
Ce1  1.0  0.4890963472987901  0.33929557956220624  0.7358596682831753  Uiso  ?  Ce
Ce1  1.0  0.5284448564335612  0.30142082071768195  0.7347986284924303  Uiso  ?  Ce
Ce1  1.0  0.5253296897165881  0.34044980862999463  0.7684138876034652  Uiso  ?  Ce
O1  1.0  0.5079387549537725  0.32377391010872475  0.7525666100921597  Uiso  ?  O
O1  1.0  0.5436220318814599  0.3229974782377707  0.7531569380790196  Uiso  ?  O
O1  1.0  0.5062079698501311  0.35960565881913514  0.7537843907706707  Uiso  ?  O
O1  1.0  0.5424604313454257  0.3588728014141983  0.7518432487108385  Uiso  ?  O
O1  1.0  0.5078774714497276  0.3202848914815077  0.714932965403147  Uiso  ?  O
O1  1.0  0.5452573835111365  0.3195943265662991  0.7171044690651096  Uiso  ?  O
O1  1.0  0.50693691631392  0.35704429571975316  0.7146568095145392  Uiso  ?  O
O1  1.0  0.5442862498004354  0.36009772284228714  0.7173738690343512  Uiso  ?  O
Ce1  1.0  0.4892853767109291  0.3015953681174486  0.698514051501775  Uiso  ?  Ce
Ce1  1.0  0.489821723767635  0.33899938776307514  0.6591697547388257  Uiso  ?  Ce
Ce1  1.0  0.5243686863461343  0.3034069031296384  0.6617157906154212  Uiso  ?  Ce
Ce1  1.0  0.5287579977334008  0.33949428691231215  0.6963616995023724  Uiso  ?  Ce
O1  1.0  0.5041901886370928  0.31953461563883495  0.6795665249577635  Uiso  ?  O
O1  1.0  0.5438135781528387  0.31848840178742516  0.6798983129603073  Uiso  ?  O
O1  1.0  0.5086059351003711  0.35521973172320065  0.6800245098876394  Uiso  ?  O
O1  1.0  0.5466107423048131  0.3574092273796525  0.6785230250094121  Uiso  ?  O
O1  1.0  0.5081678361092298  0.3204897427695565  0.6416681465393571  Uiso  ?  O
O1  1.0  0.5430615263043486  0.32204536913113385  0.642386944391276  Uiso  ?  O
O1  1.0  0.5070722804935275  0.3561312415489415  0.6425579666432931  Uiso  ?  O
O1  1.0  0.5426456737188379  0.3567272840736115  0.6407205492528988  Uiso  ?  O
Ce1  1.0  0.4897174138337711  0.3022826168735484  0.6233627991923306  Uiso  ?  Ce
Ce1  1.0  0.49337018911321856  0.33822094118100043  0.5878694444339195  Uiso  ?  Ce
Ce1  1.0  0.5247362833334382  0.3002009230935905  0.5864319120446521  Uiso  ?  Ce
Ce1  1.0  0.5269817075420087  0.33981403302431434  0.6234287861045705  Uiso  ?  Ce
O1  1.0  0.5087955517467767  0.32016250043405264  0.6058833693322548  Uiso  ?  O
O1  1.0  0.5436769575909172  0.3223280431282739  0.6043468715307265  Uiso  ?  O
O1  1.0  0.5073706248771432  0.359478697104967  0.6038729136952823  Uiso  ?  O
O1  1.0  0.5452264799084711  0.35810607243384107  0.6049930004255565  Uiso  ?  O
O1  1.0  0.5063357595214468  0.3194529068608924  0.5667925114536564  Uiso  ?  O
O1  1.0  0.5430898491749873  0.32234488400430245  0.5686149909789898  Uiso  ?  O
O1  1.0  0.5085274147287997  0.35910828698008285  0.5659811712705907  Uiso  ?  O
O1  1.0  0.5467082557958527  0.3574329564849571  0.5679915698368907  Uiso  ?  O
Ce1  1.0  0.48750352149887555  0.30034271627225917  0.5492649251413761  Uiso  ?  Ce
Ce1  1.0  0.4885543682466986  0.34207456609107767  0.5121948418108998  Uiso  ?  Ce
Ce1  1.0  0.5233900528487512  0.3039647132557939  0.5120340593183014  Uiso  ?  Ce
Ce1  1.0  0.5252815796372405  0.3396376577803572  0.5504113523205181  Uiso  ?  Ce
O1  1.0  0.5107747831373317  0.3216024483151718  0.532211354667772  Uiso  ?  O
O1  1.0  0.5431128985688665  0.31791408967081186  0.5286803285216183  Uiso  ?  O
O1  1.0  0.5061685606044988  0.35983847964079535  0.531422961974892  Uiso  ?  O
O1  1.0  0.5468052856298711  0.358548865810568  0.5284098585028274  Uiso  ?  O
O1  1.0  0.5089775246195388  0.32088851489849773  0.4939467631228089  Uiso  ?  O
O1  1.0  0.5445167516573741  0.32017029035510297  0.4944709200606785  Uiso  ?  O
O1  1.0  0.5089749679741963  0.3572075510428059  0.4936405822445088  Uiso  ?  O
O1  1.0  0.5443245467825364  0.3589262518496609  0.49547144195695125  Uiso  ?  O
Ce1  1.0  0.49067207252013934  0.30086615361948305  0.4759659195936396  Uiso  ?  Ce
Ce1  1.0  0.4886031425990517  0.33962379836249873  0.43848503363492725  Uiso  ?  Ce
Ce1  1.0  0.5252318606790245  0.30132283140849847  0.43764513859893145  Uiso  ?  Ce
Ce1  1.0  0.5259807613638711  0.34121717717186745  0.4755042265314776  Uiso  ?  Ce
O1  1.0  0.5081812119885531  0.3204011426429821  0.4538419792455015  Uiso  ?  O
O1  1.0  0.5467679441114799  0.32133055452153614  0.4555879380572044  Uiso  ?  O
O1  1.0  0.5091169175113269  0.35937205258808436  0.45634054604280755  Uiso  ?  O
O1  1.0  0.5447478424078485  0.35873718055748893  0.45541271693568514  Uiso  ?  O
O1  1.0  0.5091546840272345  0.3188727160068726  0.41907862532620455  Uiso  ?  O
O1  1.0  0.5453243245622237  0.32151815544762163  0.41945036701614635  Uiso  ?  O
O1  1.0  0.5064468595283513  0.35746276203634825  0.4183219646293745  Uiso  ?  O
O1  1.0  0.543558937302567  0.35720219499910044  0.41851142530255614  Uiso  ?  O
Ce1  1.0  0.4860199626591307  0.30131817207358613  0.4011671318601207  Uiso  ?  Ce
Ce1  1.0  0.4888729487918719  0.33925677965169737  0.3657287134031908  Uiso  ?  Ce
Ce1  1.0  0.5284222688450507  0.30155365825520286  0.36479408352065207  Uiso  ?  Ce
Ce1  1.0  0.5253204387290548  0.338067826562448  0.3987150319078048  Uiso  ?  Ce
O1  1.0  0.5054565659422751  0.3217928986216608  0.38069597922756265  Uiso  ?  O
O1  1.0  0.5445577107719625  0.32124052682699905  0.3826240222186967  Uiso  ?  O
O1  1.0  0.5089921701423702  0.35606989664596167  0.3832643556948664  Uiso  ?  O
O1  1.0  0.5436703830416159  0.35878414048875823  0.3817204891637075  Uiso  ?  O
O1  1.0  0.50985551349452  0.3228811474287404  0.34622361778858013  Uiso  ?  O
O1  1.0  0.5442476646743404  0.3203322660047738  0.3437906823870593  Uiso  ?  O
O1  1.0  0.5081114922855235  0.35819836170168157  0.3442188004267687  Uiso  ?  O
O1  1.0  0.5434122155252396  0.3586441529052057  0.3451834306962322  Uiso  ?  O
Ce1  1.0  0.49058497109341653  0.3012937691177797  0.3278729613252793  Uiso  ?  Ce
Ce1  1.0  0.49085085577479814  0.33785016451445793  0.2880421421275357  Uiso  ?  Ce
Ce1  1.0  0.5241609506291756  0.30060728275045423  0.28992265903877834  Uiso  ?  Ce
Ce1  1.0  0.5278671155139194  0.33920991801769246  0.3234660099685512  Uiso  ?  Ce
O1  1.0  0.5070625604330257  0.3214609738448952  0.3067167266994031  Uiso  ?  O
O1  1.0  0.5436841079441364  0.32138454052596593  0.3079925408548625  Uiso  ?  O
O1  1.0  0.5083688805576998  0.3595003565375378  0.30492494275699517  Uiso  ?  O
O1  1.0  0.5436849215305033  0.3585718090604631  0.3065111335634673  Uiso  ?  O
O1  1.0  0.5076192835851439  0.321043940232259  0.2703675458327882  Uiso  ?  O
O1  1.0  0.5464803991992783  0.32056413614591545  0.27086184768370347  Uiso  ?  O
O1  1.0  0.5075842238759362  0.35876764885871204  0.27315985610894905  Uiso  ?  O
O1  1.0  0.5446762041232237  0.35748389625764243  0.27290759988051205  Uiso  ?  O
Ce1  1.0  0.48974755681480464  0.30317904964897796  0.25488064841599106  Uiso  ?  Ce
Ce1  1.0  0.49030428181171365  0.33942140476518473  0.215002522767463  Uiso  ?  Ce
Ce1  1.0  0.5266879891778099  0.30307124228098903  0.21734437925157754  Uiso  ?  Ce
Ce1  1.0  0.5230252865493468  0.3380291232763634  0.2512246971200016  Uiso  ?  Ce
O1  1.0  0.5071893221182925  0.3225840753360239  0.23249920958589476  Uiso  ?  O
O1  1.0  0.5456709367674378  0.3224007827058748  0.23333933427048217  Uiso  ?  O
O1  1.0  0.5066773314887798  0.3587875010076641  0.2349923011770906  Uiso  ?  O
O1  1.0  0.5443118331568838  0.3568476533393105  0.23312329543360844  Uiso  ?  O
O1  1.0  0.5077087459809262  0.3198481945763141  0.19592974303267593  Uiso  ?  O
O1  1.0  0.5483706383121343  0.3210831174786053  0.19859848421423518  Uiso  ?  O
O1  1.0  0.5093877974494088  0.3559661724300434  0.1972122444977671  Uiso  ?  O
Ce1  1.0  0.48953779652702295  0.3022020227703261  0.177294352329878  Uiso  ?  Ce
Ce1  1.0  0.5612228607608929  0.3392167801410084  0.809007673610811  Uiso  ?  Ce
Ce1  1.0  0.5997447728528053  0.3029453118190486  0.8087549361599649  Uiso  ?  Ce
O1  1.0  0.5810145297933574  0.321951026461077  0.8283519938698268  Uiso  ?  O
O1  1.0  0.6194216954825531  0.3178821114473404  0.8266083629933102  Uiso  ?  O
O1  1.0  0.5805987118421024  0.3607242674934296  0.8258222887774143  Uiso  ?  O
O1  1.0  0.6186566122603998  0.35746929443790665  0.8241902691681728  Uiso  ?  O
O1  1.0  0.5834446183169664  0.31843856456523106  0.7898997007224295  Uiso  ?  O
O1  1.0  0.6172312278906503  0.320588366252825  0.7908059125125855  Uiso  ?  O
O1  1.0  0.5801486977661353  0.35917486833789253  0.7910623029453882  Uiso  ?  O
O1  1.0  0.6178541386204783  0.35914229915868245  0.7857124124405443  Uiso  ?  O
Ce1  1.0  0.5630760612135595  0.30410517988486724  0.7720194340433907  Uiso  ?  Ce
Ce1  1.0  0.5618475570584166  0.33843312546054044  0.7324114616612671  Uiso  ?  Ce
Ce1  1.0  0.5994951823306128  0.3006540975423613  0.7326017687783449  Uiso  ?  Ce
Ce1  1.0  0.6009369573887157  0.3365781847396586  0.7737149433832149  Uiso  ?  Ce
O1  1.0  0.5840172712756004  0.31867809998004876  0.7543585294957367  Uiso  ?  O
O1  1.0  0.6178635455848337  0.3202413801407413  0.7545597785772694  Uiso  ?  O
O1  1.0  0.5806853603884303  0.3567611771570025  0.7526993087324227  Uiso  ?  O
O1  1.0  0.6173409577924391  0.35672821951596245  0.754460300395457  Uiso  ?  O
O1  1.0  0.5824173815221526  0.32243403541878607  0.7139648647054813  Uiso  ?  O
O1  1.0  0.617989482058354  0.3187299984679851  0.7172416610313184  Uiso  ?  O
O1  1.0  0.5816630459584776  0.35468069020122794  0.7154704481217768  Uiso  ?  O
O1  1.0  0.6199202277670891  0.35985986646268037  0.7148476543570709  Uiso  ?  O
Ce1  1.0  0.5645624437220094  0.30244513971770914  0.6982689163120428  Uiso  ?  Ce
Ce1  1.0  0.563031180212236  0.3396908369823767  0.6592554649929802  Uiso  ?  Ce
Ce1  1.0  0.6015917894418997  0.30180360689952473  0.6606484694364668  Uiso  ?  Ce
Ce1  1.0  0.6018331719249863  0.33813283960061935  0.6972926235873513  Uiso  ?  Ce
O1  1.0  0.5785701323534506  0.3217388925186241  0.6807607757935809  Uiso  ?  O
O1  1.0  0.6170311548844397  0.32238550907221397  0.680069767808511  Uiso  ?  O
O1  1.0  0.5832149681926148  0.3583367720531942  0.6801988125535876  Uiso  ?  O
O1  1.0  0.6210957899321169  0.35874645110840536  0.681113676945474  Uiso  ?  O
O1  1.0  0.5808440906309781  0.31949792423950535  0.6421678719006243  Uiso  ?  O
O1  1.0  0.6197536865663023  0.3215655630992352  0.6399078062451645  Uiso  ?  O
O1  1.0  0.5815568594794791  0.3585042961954114  0.6427290711665702  Uiso  ?  O
O1  1.0  0.6185651241737536  0.3568239804632482  0.6403989094229352  Uiso  ?  O
Ce1  1.0  0.5625569010233825  0.3007541576973434  0.6249875703647124  Uiso  ?  Ce
Ce1  1.0  0.5634524950339166  0.33962262294963513  0.585680591754689  Uiso  ?  Ce
Ce1  1.0  0.6005097114332032  0.30311752962901045  0.5847070868586651  Uiso  ?  Ce
Ce1  1.0  0.6006739765760323  0.3402499438258397  0.622101842617951  Uiso  ?  Ce
O1  1.0  0.5838882879329387  0.32089734102797823  0.6012751645119002  Uiso  ?  O
O1  1.0  0.6188525735425189  0.32111768410853003  0.6034788079884413  Uiso  ?  O
O1  1.0  0.5824455451415086  0.3540579372218422  0.604997352875423  Uiso  ?  O
O1  1.0  0.6178518663477882  0.35457693461121  0.6017674310757685  Uiso  ?  O
O1  1.0  0.5816728383505788  0.3193756774522779  0.5682471527092177  Uiso  ?  O
O1  1.0  0.6205408903701438  0.3203390777776284  0.568487178962293  Uiso  ?  O
O1  1.0  0.5840527647048632  0.3593904185525321  0.5694353862131569  Uiso  ?  O
O1  1.0  0.6196063945297586  0.3561145577188018  0.5655542161093438  Uiso  ?  O
Ce1  1.0  0.5646928975395545  0.30468145059658036  0.5471314492810994  Uiso  ?  Ce
Ce1  1.0  0.5629887225548517  0.3396645847440782  0.5091010472609059  Uiso  ?  Ce
Ce1  1.0  0.5995564523224687  0.3022477709777415  0.5119860546901265  Uiso  ?  Ce
Ce1  1.0  0.6009930390174305  0.33912583400034724  0.5497420633788278  Uiso  ?  Ce
O1  1.0  0.5822282731926988  0.3185074673044905  0.5297065064129519  Uiso  ?  O
O1  1.0  0.6198514809106233  0.32240410669230957  0.5319547743546056  Uiso  ?  O
O1  1.0  0.5807609521923899  0.35548558929212903  0.5324435434503662  Uiso  ?  O
O1  1.0  0.6194680521213934  0.3580430624441434  0.5331648944772274  Uiso  ?  O
O1  1.0  0.5789691367010178  0.3222425617686378  0.49298464702993133  Uiso  ?  O
O1  1.0  0.6197476145626803  0.32092005708199894  0.4941387647002453  Uiso  ?  O
O1  1.0  0.5813958521679394  0.3571020658071375  0.49340399406999064  Uiso  ?  O
O1  1.0  0.6188131691671208  0.3586799571427194  0.4937224759368988  Uiso  ?  O
Ce1  1.0  0.5619794059051738  0.30212178796080585  0.4758865390422486  Uiso  ?  Ce
Ce1  1.0  0.5636262192005915  0.33955087092884384  0.43891344146022493  Uiso  ?  Ce
Ce1  1.0  0.6026411394377479  0.29979761864709215  0.4372283446780821  Uiso  ?  Ce
Ce1  1.0  0.6001484415234224  0.33795614398481033  0.47442177966504434  Uiso  ?  Ce
O1  1.0  0.58097579748287  0.32048833097413826  0.4548411480416957  Uiso  ?  O
O1  1.0  0.6182773330219182  0.3198398886582408  0.45749991680212226  Uiso  ?  O
O1  1.0  0.5824051932661343  0.3567166622485669  0.45674622052873387  Uiso  ?  O
O1  1.0  0.6189452261545085  0.35692067038975905  0.4557996849026845  Uiso  ?  O
O1  1.0  0.5813407343221688  0.32017746604785835  0.4203916213698897  Uiso  ?  O
O1  1.0  0.6181210346870878  0.3212967698557775  0.4205804296176398  Uiso  ?  O
O1  1.0  0.5816986355455804  0.35798654400564095  0.4176133788176589  Uiso  ?  O
O1  1.0  0.6186240578515168  0.35814545265313813  0.4175093911622918  Uiso  ?  O
Ce1  1.0  0.5644354309728178  0.30301806310783364  0.4003324132803929  Uiso  ?  Ce
Ce1  1.0  0.5617755746159243  0.3402421163447415  0.36183785740236085  Uiso  ?  Ce
Ce1  1.0  0.6007438958627539  0.3004913651058193  0.3635436909085103  Uiso  ?  Ce
Ce1  1.0  0.6027310776436126  0.33805013629288766  0.40009959036865955  Uiso  ?  Ce
O1  1.0  0.5796049666120617  0.3215930434795378  0.3817018787694999  Uiso  ?  O
O1  1.0  0.6194563795392272  0.32040959258042284  0.38185371459937617  Uiso  ?  O
O1  1.0  0.5848255777791851  0.35836362851385173  0.380902574005958  Uiso  ?  O
O1  1.0  0.61917096410923  0.35557638562131305  0.38186915456558757  Uiso  ?  O
O1  1.0  0.580456407315261  0.32045964250733433  0.3452148333272945  Uiso  ?  O
O1  1.0  0.6177887057999806  0.3173480275084499  0.3462727583735804  Uiso  ?  O
O1  1.0  0.5814791843021586  0.35675201215657093  0.3427023302837906  Uiso  ?  O
O1  1.0  0.6184935293035806  0.3570925166680946  0.34576624419455987  Uiso  ?  O
Ce1  1.0  0.5636007581264583  0.30203500747762085  0.32370569466899124  Uiso  ?  Ce
Ce1  1.0  0.5603053550337763  0.33852506490737255  0.28840203206307535  Uiso  ?  Ce
Ce1  1.0  0.5981189516575541  0.3004422459113281  0.28996548000903044  Uiso  ?  Ce
Ce1  1.0  0.5996692617043687  0.3356610784284728  0.3254391466615104  Uiso  ?  Ce
O1  1.0  0.583543287617535  0.3225093221837506  0.307199341097787  Uiso  ?  O
O1  1.0  0.6177431762654938  0.3213641496156678  0.30717458432358796  Uiso  ?  O
O1  1.0  0.5803007112000454  0.3585315221375423  0.3074878759776041  Uiso  ?  O
O1  1.0  0.583353898872849  0.3212296923385059  0.2712317246069755  Uiso  ?  O
O1  1.0  0.6173337201612261  0.32201217241412416  0.2698523418948387  Uiso  ?  O
Ce1  1.0  0.5640264652657897  0.3002902838290243  0.2544636275841824  Uiso  ?  Ce
O1  1.0  0.5821728225370926  0.3212318870340611  0.23316632913071775  Uiso  ?  O
Ce1  1.0  0.6363995130126685  0.34072918176717715  0.8099015517732827  Uiso  ?  Ce
Ce1  1.0  0.6766984886158638  0.3023097945580309  0.8098502983609884  Uiso  ?  Ce
O1  1.0  0.6540189769176862  0.3187124264706889  0.8288755025088403  Uiso  ?  O
O1  1.0  0.6920170922668842  0.320364511833247  0.8269779268847901  Uiso  ?  O
O1  1.0  0.6570901153557328  0.35943751740690105  0.8283325169251181  Uiso  ?  O
O1  1.0  0.6930748715194537  0.35947190520524147  0.8280197895806465  Uiso  ?  O
O1  1.0  0.6552946113243415  0.31947400775180484  0.7886555047962699  Uiso  ?  O
O1  1.0  0.6964228200535061  0.3201307023294318  0.789702754374238  Uiso  ?  O
O1  1.0  0.6537747295119322  0.358179342167466  0.7910806375640075  Uiso  ?  O
O1  1.0  0.6925514078302449  0.35984666203596605  0.7906263465507998  Uiso  ?  O
Ce1  1.0  0.6388216890496758  0.30081268309647385  0.7705788938768312  Uiso  ?  Ce
Ce1  1.0  0.6376749355325987  0.3424383374066623  0.7346477999588945  Uiso  ?  Ce
Ce1  1.0  0.6752263284648191  0.30330849163085843  0.7338466783406902  Uiso  ?  Ce
Ce1  1.0  0.6763837905271064  0.34073482390976934  0.7713357719499837  Uiso  ?  Ce
O1  1.0  0.6567803896811797  0.32017562798416743  0.7519977398069086  Uiso  ?  O
O1  1.0  0.6929999827040186  0.318575745882855  0.7535881080743035  Uiso  ?  O
O1  1.0  0.6534032273222571  0.3593061346601318  0.7533957209351778  Uiso  ?  O
O1  1.0  0.6975245383566293  0.35836434296834824  0.7528295944308173  Uiso  ?  O
O1  1.0  0.6538178699017364  0.3182710880232435  0.713805279980347  Uiso  ?  O
O1  1.0  0.6937919644133688  0.3202738328734153  0.7154919147591671  Uiso  ?  O
O1  1.0  0.6557126523001366  0.3573552820993989  0.7141565423924303  Uiso  ?  O
O1  1.0  0.6929961596137586  0.35750783132219643  0.7147097205968871  Uiso  ?  O
Ce1  1.0  0.6364576693763643  0.30227366458526406  0.6977107015734805  Uiso  ?  Ce
Ce1  1.0  0.6385359425071095  0.33822743195322674  0.6601784388199432  Uiso  ?  Ce
Ce1  1.0  0.6742531335462962  0.3012614412174219  0.6585126001827541  Uiso  ?  Ce
Ce1  1.0  0.6740236411492712  0.33899275131284784  0.6963720825791752  Uiso  ?  Ce
O1  1.0  0.6557123076276941  0.3208286713538922  0.6792129009637219  Uiso  ?  O
O1  1.0  0.6904479965918038  0.32206231408201286  0.6788998962956209  Uiso  ?  O
O1  1.0  0.6563189204946842  0.35816634570093947  0.6776866781332145  Uiso  ?  O
O1  1.0  0.6927052047139587  0.35859599252521074  0.6789848396957363  Uiso  ?  O
O1  1.0  0.6556275946503367  0.3220145075203364  0.6406879043652156  Uiso  ?  O
O1  1.0  0.6916105001865477  0.3184528652110947  0.6420671159197296  Uiso  ?  O
O1  1.0  0.6575924146203143  0.3595068582507522  0.6408162050609837  Uiso  ?  O
O1  1.0  0.6925603686107407  0.3579306934303252  0.6406431048462825  Uiso  ?  O
Ce1  1.0  0.6378897719812002  0.30163822261109  0.6237986787172987  Uiso  ?  Ce
Ce1  1.0  0.6371766481497111  0.33557409409500044  0.5861102182661279  Uiso  ?  Ce
Ce1  1.0  0.6737716923194853  0.30218152012070953  0.5857538435093419  Uiso  ?  Ce
Ce1  1.0  0.6759327607915744  0.3378295717075633  0.6235867457459542  Uiso  ?  Ce
O1  1.0  0.6552202860191618  0.3198017598036868  0.6056372461949996  Uiso  ?  O
O1  1.0  0.6932376079746186  0.32036447313112754  0.6025915407819038  Uiso  ?  O
O1  1.0  0.6571286248972266  0.35757160578970343  0.6051949144871955  Uiso  ?  O
O1  1.0  0.6948225076983916  0.35738232807110154  0.6030689469945131  Uiso  ?  O
O1  1.0  0.6573461271488826  0.3191493122751545  0.5678279415619704  Uiso  ?  O
O1  1.0  0.6931925122575557  0.31952915088427214  0.5669322186956022  Uiso  ?  O
O1  1.0  0.6561025723044874  0.35632766950813266  0.5654239856142615  Uiso  ?  O
O1  1.0  0.691431397532013  0.3568209755707518  0.5663254598655243  Uiso  ?  O
Ce1  1.0  0.6385949100505031  0.3021977242890429  0.5485147230317294  Uiso  ?  Ce
Ce1  1.0  0.6388052323711599  0.341077027792999  0.5122125313210161  Uiso  ?  Ce
Ce1  1.0  0.6743769062668454  0.3026440643939149  0.5111319786325383  Uiso  ?  Ce
Ce1  1.0  0.6759970475010614  0.3422110249693564  0.5472539906615498  Uiso  ?  Ce
O1  1.0  0.6551081554320384  0.3231513258942245  0.5314966920843067  Uiso  ?  O
O1  1.0  0.6920368020298245  0.31920286751859  0.5299211751676507  Uiso  ?  O
O1  1.0  0.6554024460621666  0.3568919581896401  0.529739091681905  Uiso  ?  O
O1  1.0  0.6926154460787773  0.35788232614403503  0.5303793952963826  Uiso  ?  O
O1  1.0  0.6564741782360618  0.3225416919128535  0.4934571842019644  Uiso  ?  O
O1  1.0  0.6937377157931943  0.3194407009091094  0.4924055328598734  Uiso  ?  O
O1  1.0  0.6560889895995452  0.3564782327614939  0.4927052681761051  Uiso  ?  O
O1  1.0  0.6945859675772637  0.35826587624984263  0.49204655128211555  Uiso  ?  O
Ce1  1.0  0.6379464927851732  0.30436135617016546  0.4748750307914862  Uiso  ?  Ce
Ce1  1.0  0.6372860258161214  0.3386091914590067  0.43840680858870296  Uiso  ?  Ce
Ce1  1.0  0.6728549328130198  0.30136762617162993  0.43743441139798833  Uiso  ?  Ce
Ce1  1.0  0.6749805091006899  0.33945580726732416  0.4725506329223057  Uiso  ?  Ce
O1  1.0  0.6556421193001629  0.32092444514509333  0.4551235738524594  Uiso  ?  O
O1  1.0  0.6939512086141982  0.32169810547498034  0.45444346746952446  Uiso  ?  O
O1  1.0  0.6558564447698937  0.35712160892794653  0.45457917816995763  Uiso  ?  O
O1  1.0  0.6927399752796932  0.35867672651565596  0.4574263875287212  Uiso  ?  O
O1  1.0  0.6549762698719221  0.32026574149813014  0.41835194059301145  Uiso  ?  O
O1  1.0  0.6920290704909039  0.32243666494975043  0.4175257573603749  Uiso  ?  O
O1  1.0  0.6540276404760289  0.35660341878560725  0.41879415830688527  Uiso  ?  O
O1  1.0  0.6913349772875116  0.35939621549517203  0.4168535719542677  Uiso  ?  O
Ce1  1.0  0.636344424115833  0.30157806385209585  0.4019825741570639  Uiso  ?  Ce
Ce1  1.0  0.6405503131844414  0.33964776628180665  0.3609597305433588  Uiso  ?  Ce
Ce1  1.0  0.6761389486541998  0.3032848323698985  0.3637194820775314  Uiso  ?  Ce
Ce1  1.0  0.6734103858787306  0.33849208031081823  0.39973395289984104  Uiso  ?  Ce
O1  1.0  0.6591513954920156  0.3205377123568667  0.3823217478018425  Uiso  ?  O
O1  1.0  0.6932620244131373  0.3201438034141142  0.3822684656524581  Uiso  ?  O
O1  1.0  0.6552523529907843  0.3587409251574492  0.38531614846405665  Uiso  ?  O
O1  1.0  0.6563036847200499  0.318710894018088  0.34294455530290147  Uiso  ?  O
Ce1  1.0  0.637099148908975  0.3001101316606059  0.32611459917107766  Uiso  ?  Ce
O1  1.0  0.6571903230437602  0.31923845094555275  0.30731073985296825  Uiso  ?  O
Ce1  1.0  0.709904838022015  0.34134749562375793  0.8096623094931993  Uiso  ?  Ce
Ce1  1.0  0.7471265357689982  0.30103475149662146  0.8091826213405622  Uiso  ?  Ce
O1  1.0  0.7288269921502311  0.32125802005729076  0.8264076135510222  Uiso  ?  O
O1  1.0  0.7689368640854394  0.321435015649758  0.8270392516574294  Uiso  ?  O
O1  1.0  0.7302289542790065  0.35750843788982456  0.8278241861473894  Uiso  ?  O
O1  1.0  0.7280134488713521  0.31963534113428177  0.7878750813392736  Uiso  ?  O
O1  1.0  0.7685702795259794  0.3213201413046837  0.7911221880317211  Uiso  ?  O
O1  1.0  0.7298649236058984  0.36044959613423805  0.7910798112441806  Uiso  ?  O
Ce1  1.0  0.7115555406229486  0.3006196368163649  0.7721439379737873  Uiso  ?  Ce
Ce1  1.0  0.7134762552023077  0.3382022556721359  0.7344510610012854  Uiso  ?  Ce
Ce1  1.0  0.7477788278508959  0.3019117729243808  0.7350265496093278  Uiso  ?  Ce
Ce1  1.0  0.7493542801544768  0.33823991358372346  0.7714989201982871  Uiso  ?  Ce
O1  1.0  0.7318037375100428  0.3188611268572921  0.7538344669742503  Uiso  ?  O
O1  1.0  0.7676670707304827  0.3206918228115046  0.7526913504446541  Uiso  ?  O
O1  1.0  0.7315121900803863  0.35700583182186785  0.7520113664745546  Uiso  ?  O
O1  1.0  0.7310130871522832  0.3208226594296885  0.7150422621943389  Uiso  ?  O
O1  1.0  0.7657530011046234  0.3199175396296434  0.7172499823359326  Uiso  ?  O
O1  1.0  0.7275680645086255  0.35894920817982  0.7158350789010063  Uiso  ?  O
Ce1  1.0  0.7121759411595363  0.30185376922017976  0.6951387467088634  Uiso  ?  Ce
Ce1  1.0  0.7106070419426036  0.3398714387897599  0.6596372335478567  Uiso  ?  Ce
Ce1  1.0  0.7501632059893754  0.3045768948172085  0.6602932926338123  Uiso  ?  Ce
Ce1  1.0  0.7474125906598822  0.33870995430969875  0.6969346783660703  Uiso  ?  Ce
O1  1.0  0.7297448230277638  0.3213464459416811  0.6765546681403349  Uiso  ?  O
O1  1.0  0.767759835896777  0.3193635929650493  0.678129042981365  Uiso  ?  O
O1  1.0  0.7279760252947104  0.35617809476812745  0.6799479864106216  Uiso  ?  O
O1  1.0  0.7309149968558547  0.3219526411345932  0.6411195795513857  Uiso  ?  O
O1  1.0  0.7676123146332715  0.3211786533654385  0.6419610557232599  Uiso  ?  O
O1  1.0  0.7306505787891316  0.35576737634624556  0.6429513481387559  Uiso  ?  O
Ce1  1.0  0.7122766163830532  0.3018517294924387  0.6237199595004596  Uiso  ?  Ce
Ce1  1.0  0.7126655076660264  0.3363024449750817  0.5870162840916313  Uiso  ?  Ce
Ce1  1.0  0.7484036034484901  0.30251072049667477  0.5854349705276759  Uiso  ?  Ce
Ce1  1.0  0.7499694161704209  0.3383682840981525  0.6204086669203004  Uiso  ?  Ce
O1  1.0  0.7281804388505513  0.3199796121485504  0.6065768735318392  Uiso  ?  O
O1  1.0  0.7672948454042133  0.31943356117299393  0.6038826977342073  Uiso  ?  O
O1  1.0  0.7275449882408758  0.35889310444187167  0.6042204749675137  Uiso  ?  O
O1  1.0  0.730209040465747  0.32009927721396964  0.5685883530629606  Uiso  ?  O
O1  1.0  0.7684930045835919  0.3232146443845929  0.5695904469563456  Uiso  ?  O
O1  1.0  0.7298849112065979  0.3587208481856498  0.5692671422745268  Uiso  ?  O
Ce1  1.0  0.711351774377707  0.2992492301314835  0.5470676333094973  Uiso  ?  Ce
Ce1  1.0  0.7118172146664629  0.33918414394962515  0.510626262301185  Uiso  ?  Ce
Ce1  1.0  0.7487847354964821  0.3018807380840469  0.5127698477190423  Uiso  ?  Ce
Ce1  1.0  0.7490383512711051  0.3369571628909246  0.5491198557633552  Uiso  ?  Ce
O1  1.0  0.7323087852495649  0.3206210300088715  0.5301843208933775  Uiso  ?  O
O1  1.0  0.7671807858572199  0.32286763727168294  0.5317554256168621  Uiso  ?  O
O1  1.0  0.7316747734444277  0.3579812827758853  0.5316458607515286  Uiso  ?  O
O1  1.0  0.7303639397441603  0.32323859210030376  0.49154507183310764  Uiso  ?  O
O1  1.0  0.7689027692774892  0.320526970878981  0.4918228166475551  Uiso  ?  O
O1  1.0  0.7278860308894252  0.3566809891792716  0.49290243626400054  Uiso  ?  O
Ce1  1.0  0.7103732964871905  0.302006800645772  0.47787051666758273  Uiso  ?  Ce
Ce1  1.0  0.710862597549305  0.3367567461690273  0.4379526985583214  Uiso  ?  Ce
Ce1  1.0  0.7507498152850802  0.299712357799186  0.4373322527728773  Uiso  ?  Ce
Ce1  1.0  0.747738917820386  0.339869836671846  0.4728513339693372  Uiso  ?  Ce
O1  1.0  0.7315618243731211  0.3196037910836734  0.45739748526664786  Uiso  ?  O
O1  1.0  0.7688412161571223  0.32279003618565677  0.45597018051824184  Uiso  ?  O
O1  1.0  0.7305969722477307  0.35739209138407446  0.4558095795214353  Uiso  ?  O
O1  1.0  0.7294767342795943  0.31895260146265636  0.41778900401364005  Uiso  ?  O
Ce1  1.0  0.7126161947245824  0.30091370888391783  0.4024837268501219  Uiso  ?  Ce
Ce1  1.0  0.1556651254655  0.22827547465822534  0.8069982604787654  Uiso  ?  Ce
O1  1.0  0.13805020840472199  0.24581212404964362  0.8261143029506927  Uiso  ?  O
O1  1.0  0.17510665865074335  0.2480806540006786  0.8238600306537145  Uiso  ?  O
O1  1.0  0.13833070753038246  0.28398573822315687  0.8267284133580032  Uiso  ?  O
O1  1.0  0.17135053572627437  0.2834559278855852  0.828302079027055  Uiso  ?  O
O1  1.0  0.17278133998509004  0.24747545363086215  0.7893504337818567  Uiso  ?  O
O1  1.0  0.13817839167799065  0.28144231006658393  0.7881646808389184  Uiso  ?  O
O1  1.0  0.172199515872819  0.2827007684054027  0.78956687831396  Uiso  ?  O
Ce1  1.0  0.15517082111890473  0.22815415058530383  0.7345863158098864  Uiso  ?  Ce
Ce1  1.0  0.1570548483861927  0.2626749773515119  0.7703273631164177  Uiso  ?  Ce
O1  1.0  0.1721614822632067  0.24666634517947797  0.7518367444236146  Uiso  ?  O
O1  1.0  0.13738447992777778  0.28026172943260197  0.7534574411059085  Uiso  ?  O
O1  1.0  0.17583710101457617  0.2820470709053473  0.7509931187212375  Uiso  ?  O
O1  1.0  0.13888549723627486  0.2465898459440989  0.7181687533482962  Uiso  ?  O
O1  1.0  0.17539590599332966  0.2459640059314444  0.71635084886663  Uiso  ?  O
O1  1.0  0.1378216863184212  0.28248922236497354  0.7174637188585957  Uiso  ?  O
O1  1.0  0.1732284077142849  0.28419941338196897  0.7163109694192185  Uiso  ?  O
Ce1  1.0  0.15642003815281338  0.2280982586573526  0.6596044376851028  Uiso  ?  Ce
Ce1  1.0  0.15449832111638354  0.26479293664104064  0.6984574489082727  Uiso  ?  Ce
O1  1.0  0.17658073183785852  0.24594265586464287  0.6757713917752787  Uiso  ?  O
O1  1.0  0.1735203110040244  0.28591946618987196  0.6773595290301685  Uiso  ?  O
O1  1.0  0.1734294959139659  0.2454219950607022  0.6415722744056792  Uiso  ?  O
O1  1.0  0.17445636632150036  0.28168088489700926  0.6429729716080491  Uiso  ?  O
Ce1  1.0  0.1588087185937561  0.22906042272292082  0.5871093283588685  Uiso  ?  Ce
Ce1  1.0  0.15484184876323911  0.26442493953188145  0.6231952819394964  Uiso  ?  Ce
O1  1.0  0.1396092515105258  0.24683925062432058  0.6014267085583523  Uiso  ?  O
O1  1.0  0.17434460261333298  0.2470708285793337  0.6048907740354221  Uiso  ?  O
O1  1.0  0.17394010424650508  0.2851419466219556  0.6035747560257825  Uiso  ?  O
O1  1.0  0.17059051389962201  0.24786042254635746  0.5689325190782759  Uiso  ?  O
O1  1.0  0.1750101135802508  0.2820965863165299  0.5686695651954553  Uiso  ?  O
Ce1  1.0  0.15741245751697533  0.22751895719410062  0.5107515755672493  Uiso  ?  Ce
Ce1  1.0  0.15672609176087707  0.26171449798431745  0.5481041909654909  Uiso  ?  Ce
O1  1.0  0.17419339709470635  0.2451023513980331  0.5302900808082586  Uiso  ?  O
O1  1.0  0.13879447479352816  0.28416428142378725  0.5284064444395478  Uiso  ?  O
O1  1.0  0.1742066239828605  0.27973439459873767  0.5296037433490675  Uiso  ?  O
O1  1.0  0.1389391417801634  0.24635426922953033  0.4938664249103959  Uiso  ?  O
O1  1.0  0.17506881781996064  0.24795039630375984  0.4950305440293712  Uiso  ?  O
O1  1.0  0.1745128232935602  0.28332288459517124  0.49392628964325236  Uiso  ?  O
Ce1  1.0  0.1531843140387651  0.22676326494923232  0.43396296644540516  Uiso  ?  Ce
Ce1  1.0  0.15483596642220337  0.26549347075399665  0.47557384029265903  Uiso  ?  Ce
O1  1.0  0.13800253444104127  0.24698943939757298  0.4557910753259058  Uiso  ?  O
O1  1.0  0.1719699074857473  0.24543714443229692  0.4542553542379688  Uiso  ?  O
O1  1.0  0.13796636940323176  0.2825384753621673  0.4584545922232663  Uiso  ?  O
O1  1.0  0.17325908026185993  0.2835443905831978  0.45856268835870456  Uiso  ?  O
O1  1.0  0.17488540910060585  0.24561268795684343  0.4180375896631697  Uiso  ?  O
O1  1.0  0.17337859739695222  0.2834891561650538  0.41789797765240444  Uiso  ?  O
Ce1  1.0  0.155499893624873  0.22540671120623668  0.36322515992529325  Uiso  ?  Ce
Ce1  1.0  0.15470151775183347  0.2651228308817273  0.40167397208731737  Uiso  ?  Ce
O1  1.0  0.17379283198471943  0.2454765659692859  0.3845487314580515  Uiso  ?  O
O1  1.0  0.13895619060680714  0.2864117992288845  0.3800216761770547  Uiso  ?  O
O1  1.0  0.17406976398166427  0.28438629998241344  0.3799234050693121  Uiso  ?  O
O1  1.0  0.13808130427892631  0.24564772405097696  0.34619288004373405  Uiso  ?  O
O1  1.0  0.17605157202820715  0.24574220674703567  0.3454143946327208  Uiso  ?  O
O1  1.0  0.17372810140701594  0.2835317120963581  0.345211119532662  Uiso  ?  O
Ce1  1.0  0.1552614835668859  0.2278972495023136  0.2897208528726645  Uiso  ?  Ce
Ce1  1.0  0.15529667669215366  0.265438150302327  0.32541244950712855  Uiso  ?  Ce
O1  1.0  0.1373122594435032  0.24589582927757955  0.3069951078138268  Uiso  ?  O
O1  1.0  0.17270067772093006  0.2451790876746814  0.30766779344995454  Uiso  ?  O
O1  1.0  0.13842828079620922  0.2828879912076358  0.3088528740992788  Uiso  ?  O
O1  1.0  0.1736314610970816  0.2821682069538706  0.3094367509813759  Uiso  ?  O
O1  1.0  0.1378272150271253  0.24843626039615083  0.26896144875237654  Uiso  ?  O
O1  1.0  0.17329943448468169  0.2468219284794435  0.2720976987326923  Uiso  ?  O
O1  1.0  0.13755567597067023  0.28458774430607203  0.27038422868983886  Uiso  ?  O
O1  1.0  0.174833093594373  0.2825098268649185  0.27272558159670934  Uiso  ?  O
Ce1  1.0  0.1552176005546444  0.22790346788316873  0.2161192892077306  Uiso  ?  Ce
Ce1  1.0  0.1530453000956419  0.2660734774181975  0.24797044697896942  Uiso  ?  Ce
O1  1.0  0.17271673773047755  0.2439203873407277  0.23469280565080525  Uiso  ?  O
O1  1.0  0.17337994734817683  0.28525769727336125  0.23532493116836786  Uiso  ?  O
O1  1.0  0.14012956207003144  0.24838306320921277  0.1969559750369184  Uiso  ?  O
O1  1.0  0.17351684623494093  0.24914515524953376  0.1974037065558187  Uiso  ?  O
O1  1.0  0.13725993880169274  0.2829843961289163  0.1975089581685243  Uiso  ?  O
O1  1.0  0.17418226082805288  0.2824336345794038  0.1945399641001507  Uiso  ?  O
Ce1  1.0  0.15605343885938608  0.26154707990426096  0.1770690880617121  Uiso  ?  Ce
Ce1  1.0  0.19398731423932625  0.26590275078957115  0.8103831326525629  Uiso  ?  Ce
Ce1  1.0  0.22892297969503894  0.2283766789949427  0.8080536589150048  Uiso  ?  Ce
O1  1.0  0.21259514690739956  0.2450381764160797  0.8262253608310267  Uiso  ?  O
O1  1.0  0.24957076881254256  0.2473100574095234  0.8271841767988465  Uiso  ?  O
O1  1.0  0.21343635058761823  0.2841444977822357  0.8258338776018621  Uiso  ?  O
O1  1.0  0.24630891114745368  0.2854824792209047  0.8239381800674974  Uiso  ?  O
O1  1.0  0.2115332440077448  0.2450546765307626  0.7899919683587435  Uiso  ?  O
O1  1.0  0.2454662366176874  0.2484684130599313  0.7890132831394898  Uiso  ?  O
O1  1.0  0.20949501501209927  0.2850824263583433  0.7900875294584258  Uiso  ?  O
O1  1.0  0.24890863744946995  0.28372863858792624  0.7902333837431208  Uiso  ?  O
Ce1  1.0  0.1926318866432358  0.22809933604687005  0.7737170387091199  Uiso  ?  Ce
Ce1  1.0  0.19387776101823795  0.2641531605580873  0.7336210829519874  Uiso  ?  Ce
Ce1  1.0  0.22942262237596014  0.2273760852186457  0.7354906521538981  Uiso  ?  Ce
Ce1  1.0  0.23083285795120131  0.2610706589204353  0.7710995616534654  Uiso  ?  Ce
O1  1.0  0.21221450382539656  0.24551480727244623  0.753650195664472  Uiso  ?  O
O1  1.0  0.2460787663120466  0.24517721032102904  0.752621489930154  Uiso  ?  O
O1  1.0  0.20944567035832792  0.2869023289307456  0.7541389053763985  Uiso  ?  O
O1  1.0  0.24704440302007194  0.282631691380587  0.7536034597513437  Uiso  ?  O
O1  1.0  0.2125021499182632  0.24800532784993345  0.7151794811388288  Uiso  ?  O
O1  1.0  0.2477577029837477  0.24858190415764642  0.7115668723071005  Uiso  ?  O
O1  1.0  0.20870461224366588  0.2843262921247992  0.7156899988583525  Uiso  ?  O
O1  1.0  0.24929701035126878  0.28439610892646694  0.7178963290702416  Uiso  ?  O
Ce1  1.0  0.19348461302917677  0.22756511689663614  0.6952488547265635  Uiso  ?  Ce
Ce1  1.0  0.1937938684073924  0.268021104106875  0.6616029555189539  Uiso  ?  Ce
Ce1  1.0  0.228728066279581  0.226000637233493  0.6611846961486695  Uiso  ?  Ce
Ce1  1.0  0.23214132042502905  0.2640683583462842  0.6985486603782765  Uiso  ?  Ce
O1  1.0  0.21053410373285544  0.24754253691436554  0.6810785250091638  Uiso  ?  O
O1  1.0  0.24782677749325674  0.24626967793400312  0.6771876954363525  Uiso  ?  O
O1  1.0  0.21061969840031525  0.2822897500761263  0.6773209151598232  Uiso  ?  O
O1  1.0  0.2487312843465314  0.282640973033427  0.6773399178580304  Uiso  ?  O
O1  1.0  0.21172308012048954  0.24758813392616522  0.642592923704919  Uiso  ?  O
O1  1.0  0.24584082898921716  0.2450970116199162  0.6413700304688448  Uiso  ?  O
O1  1.0  0.21094420534442612  0.28381608016613663  0.6410091224142912  Uiso  ?  O
O1  1.0  0.24904652717774936  0.28319375428514026  0.6397791765536227  Uiso  ?  O
Ce1  1.0  0.19335177077953264  0.2298307270596928  0.6224938416987198  Uiso  ?  Ce
Ce1  1.0  0.1933978658071299  0.2659957103417112  0.5844723579548396  Uiso  ?  Ce
Ce1  1.0  0.22772297156175134  0.22847616644503815  0.5866581905509477  Uiso  ?  Ce
Ce1  1.0  0.22877345617549694  0.26612627263644134  0.6233608150253677  Uiso  ?  Ce
O1  1.0  0.2079617093494654  0.24544357231316105  0.6074161218429356  Uiso  ?  O
O1  1.0  0.24697340259981107  0.24383144215411987  0.6020172009348912  Uiso  ?  O
O1  1.0  0.21437001597617297  0.28109716108515914  0.6043910110345116  Uiso  ?  O
O1  1.0  0.24742749436595277  0.28489152521125677  0.6056183957145909  Uiso  ?  O
O1  1.0  0.209632003259034  0.24792976534517822  0.5681432402815141  Uiso  ?  O
O1  1.0  0.2490130229943253  0.24735276897666247  0.5663803734001472  Uiso  ?  O
O1  1.0  0.2109063769969608  0.28019722598374547  0.5652324948741541  Uiso  ?  O
O1  1.0  0.24689440634716592  0.282000632556204  0.5686435803544246  Uiso  ?  O
Ce1  1.0  0.19284474196076148  0.2265341353460172  0.549663948801289  Uiso  ?  Ce
Ce1  1.0  0.19309700601928792  0.26534889657641947  0.5116273205050813  Uiso  ?  Ce
Ce1  1.0  0.22981664641745805  0.22780873352144412  0.5108219364626196  Uiso  ?  Ce
Ce1  1.0  0.22972991759549063  0.2634125332237014  0.5494228662320726  Uiso  ?  Ce
O1  1.0  0.20913291449318508  0.2448386437836998  0.5283145099287593  Uiso  ?  O
O1  1.0  0.24884113773916477  0.24641673135449615  0.5291538860246607  Uiso  ?  O
O1  1.0  0.20977398356030527  0.2814334579312522  0.5298757694802534  Uiso  ?  O
O1  1.0  0.249065505140524  0.28410557854125607  0.5292999783415738  Uiso  ?  O
O1  1.0  0.20950189847999795  0.24659226325256184  0.49250423487066736  Uiso  ?  O
O1  1.0  0.24782266467218364  0.2435158798274885  0.4935899314500268  Uiso  ?  O
O1  1.0  0.21054274657994332  0.2838450718967832  0.4938189832845967  Uiso  ?  O
O1  1.0  0.2470648773270104  0.2856021455706077  0.4927762657788261  Uiso  ?  O
Ce1  1.0  0.196563595264606  0.2257825684037721  0.47284152288219794  Uiso  ?  Ce
Ce1  1.0  0.19306118316294027  0.2665550298334629  0.43736770444285067  Uiso  ?  Ce
Ce1  1.0  0.22864389454597958  0.22800632691222383  0.4385781568242194  Uiso  ?  Ce
Ce1  1.0  0.22856027821847832  0.2629624790964539  0.47531432174978566  Uiso  ?  Ce
O1  1.0  0.2109267736923006  0.24578578038708493  0.4573558931521182  Uiso  ?  O
O1  1.0  0.25084187579862743  0.24923694020692239  0.45492126636277636  Uiso  ?  O
O1  1.0  0.21302872954604424  0.28233162030920766  0.45447507100224854  Uiso  ?  O
O1  1.0  0.24655914917633315  0.2834561477534892  0.4571454500678001  Uiso  ?  O
O1  1.0  0.21415591188194558  0.24826777315361548  0.42082744739700223  Uiso  ?  O
O1  1.0  0.24837249267857106  0.24555447059491436  0.4198316662782842  Uiso  ?  O
O1  1.0  0.21149227242900073  0.284673874857742  0.4214276668019923  Uiso  ?  O
O1  1.0  0.24859128675106223  0.28184034586394807  0.4216934660866425  Uiso  ?  O
Ce1  1.0  0.19555230216727204  0.2295606902832904  0.4002831081009707  Uiso  ?  Ce
Ce1  1.0  0.19207362068855127  0.2653821860681945  0.36341562315076376  Uiso  ?  Ce
Ce1  1.0  0.2272890812377617  0.22882863909328305  0.3646131695332819  Uiso  ?  Ce
Ce1  1.0  0.22979970463879903  0.2645651353164491  0.4018173366920747  Uiso  ?  Ce
O1  1.0  0.2101527726893088  0.24807618092053224  0.38366834684652296  Uiso  ?  O
O1  1.0  0.2484948106229972  0.24581500576945872  0.3841469909146137  Uiso  ?  O
O1  1.0  0.2097577436978221  0.2830453549549641  0.3822888576024944  Uiso  ?  O
O1  1.0  0.24993380232549026  0.2827394667905592  0.3773715593820832  Uiso  ?  O
O1  1.0  0.21069293504814032  0.24654516030470203  0.3425915295682155  Uiso  ?  O
O1  1.0  0.24682261219941778  0.24732557251867943  0.34515515908529343  Uiso  ?  O
O1  1.0  0.21236797278562206  0.28516687002920116  0.34592811422106123  Uiso  ?  O
O1  1.0  0.24944996657562565  0.28413501385194867  0.34726119863042904  Uiso  ?  O
Ce1  1.0  0.1931785985448545  0.22740622497786392  0.32786982180443563  Uiso  ?  Ce
Ce1  1.0  0.19460750774555893  0.2637045371132252  0.289395895265785  Uiso  ?  Ce
Ce1  1.0  0.22922205865080963  0.2252771763393189  0.2923483579359392  Uiso  ?  Ce
Ce1  1.0  0.2276097823280528  0.2630197720578242  0.325848229007013  Uiso  ?  Ce
O1  1.0  0.21166699955536705  0.2459971843712319  0.3079770769277618  Uiso  ?  O
O1  1.0  0.2474848353580332  0.24760339393806247  0.30928577039428756  Uiso  ?  O
O1  1.0  0.21018727062018178  0.28369146066700374  0.30556803278626193  Uiso  ?  O
O1  1.0  0.24785605965529867  0.28238998690600914  0.3084483903035003  Uiso  ?  O
O1  1.0  0.2127629130680805  0.24409177453184655  0.2713642465077694  Uiso  ?  O
O1  1.0  0.2451439911532242  0.2461264603934079  0.26980027290802033  Uiso  ?  O
O1  1.0  0.210735687873263  0.28442638978587875  0.27119374978644184  Uiso  ?  O
O1  1.0  0.24915430598076913  0.28484774746821023  0.27021719120325033  Uiso  ?  O
Ce1  1.0  0.19258606258756425  0.22842379799442236  0.25246216479555433  Uiso  ?  Ce
Ce1  1.0  0.19219730636862803  0.2651794280766765  0.2164245694237696  Uiso  ?  Ce
Ce1  1.0  0.2297075930345381  0.22804269326224164  0.21486348617080936  Uiso  ?  Ce
Ce1  1.0  0.2307988582344877  0.26510276005811434  0.2524156929323405  Uiso  ?  Ce
O1  1.0  0.20929912065164127  0.24669139741646914  0.23455206368660486  Uiso  ?  O
O1  1.0  0.24603192793268558  0.2466645685308608  0.2370763249245951  Uiso  ?  O
O1  1.0  0.2107697135561217  0.28359934723099783  0.22976840283661648  Uiso  ?  O
O1  1.0  0.24988221960035525  0.2835134502213366  0.23418627786300092  Uiso  ?  O
O1  1.0  0.20959896336703876  0.24551733954885588  0.19699263906264622  Uiso  ?  O
O1  1.0  0.24803407138484299  0.24630678258120475  0.19729230733856493  Uiso  ?  O
O1  1.0  0.21121384034155447  0.28345735235509695  0.19619627478954638  Uiso  ?  O
O1  1.0  0.24637536591812217  0.2844824467239971  0.19574804667855394  Uiso  ?  O
Ce1  1.0  0.1910567823042019  0.22813932645801593  0.17861665069197039  Uiso  ?  Ce
Ce1  1.0  0.22791560934385652  0.2655852458550829  0.17922424368535983  Uiso  ?  Ce
Ce1  1.0  0.27040403747675407  0.26514716045568515  0.8100007121120762  Uiso  ?  Ce
Ce1  1.0  0.3051972886318064  0.22900902387431207  0.8078116200127196  Uiso  ?  Ce
O1  1.0  0.28449056616775326  0.24650105230273422  0.8277546777009871  Uiso  ?  O
O1  1.0  0.3227681410553904  0.24522289384698354  0.8266227840540465  Uiso  ?  O
O1  1.0  0.2883025026492885  0.28166184344618256  0.8245811412030474  Uiso  ?  O
O1  1.0  0.31984793393873423  0.28119939101254193  0.8266608175188402  Uiso  ?  O
O1  1.0  0.2840745505573008  0.24585218355503569  0.7908941394375181  Uiso  ?  O
O1  1.0  0.3217029529960043  0.2460553804722582  0.7894246451318897  Uiso  ?  O
O1  1.0  0.2824206586405025  0.2845077677349435  0.7880851950560445  Uiso  ?  O
O1  1.0  0.32175864502786533  0.2838257584028366  0.7915128420610349  Uiso  ?  O
Ce1  1.0  0.2671983999438655  0.22750818735984685  0.7683282613847424  Uiso  ?  Ce
Ce1  1.0  0.2681417155372812  0.26332158266069244  0.7344179313478574  Uiso  ?  Ce
Ce1  1.0  0.30491350934009664  0.22641668553400018  0.7346608163972644  Uiso  ?  Ce
Ce1  1.0  0.3030506993769653  0.26666610964771836  0.7715463042251186  Uiso  ?  Ce
O1  1.0  0.2844540172143038  0.24742502494757243  0.7530194699498025  Uiso  ?  O
O1  1.0  0.32141679102246395  0.24578392463331325  0.7539154100505777  Uiso  ?  O
O1  1.0  0.2850733334445802  0.2843655087881493  0.7532441158896058  Uiso  ?  O
O1  1.0  0.31726645138457643  0.28284043605609144  0.7520712641469381  Uiso  ?  O
O1  1.0  0.28491448044608136  0.2460081004916245  0.7148203397575136  Uiso  ?  O
O1  1.0  0.32329328831597137  0.24972862988648514  0.7154787785444382  Uiso  ?  O
O1  1.0  0.2854144294151223  0.2833524156685481  0.7156314063189072  Uiso  ?  O
O1  1.0  0.3250656091256655  0.2831030515182224  0.7166257086480148  Uiso  ?  O
Ce1  1.0  0.2680307674656247  0.2273222252911659  0.6976118967266993  Uiso  ?  Ce
Ce1  1.0  0.26670939762246526  0.26429209177654844  0.6588758110769257  Uiso  ?  Ce
Ce1  1.0  0.3047762314776041  0.2285495680682215  0.6593924259796289  Uiso  ?  Ce
Ce1  1.0  0.3050782636634565  0.2635049645956717  0.6973645947518171  Uiso  ?  Ce
O1  1.0  0.2846357912170362  0.2477648296031398  0.6783143871470275  Uiso  ?  O
O1  1.0  0.3227211187653041  0.2473231244832589  0.6788767990476328  Uiso  ?  O
O1  1.0  0.28440134715725923  0.2837169296463859  0.6811762100520207  Uiso  ?  O
O1  1.0  0.32325903032142383  0.2829279678786168  0.6767232515282768  Uiso  ?  O
O1  1.0  0.2843128906529974  0.24703444497258503  0.6414079569822636  Uiso  ?  O
O1  1.0  0.3239349568610972  0.24407995085232917  0.6446247310646039  Uiso  ?  O
O1  1.0  0.284424342960917  0.2833881734319488  0.6424689397033029  Uiso  ?  O
O1  1.0  0.3202788384171907  0.2818531813964322  0.6401800207126883  Uiso  ?  O
Ce1  1.0  0.26582841224680026  0.22757792244849576  0.6241355839523477  Uiso  ?  Ce
Ce1  1.0  0.2652609722543738  0.2647613112325527  0.584006426487983  Uiso  ?  Ce
Ce1  1.0  0.30508588224730965  0.2259275515039453  0.5858710956626332  Uiso  ?  Ce
Ce1  1.0  0.3023955240328365  0.2644348396818994  0.620220745361642  Uiso  ?  Ce
O1  1.0  0.28407415670552655  0.24462161843501187  0.6055799248748487  Uiso  ?  O
O1  1.0  0.32026361484316446  0.24590459612147755  0.6030222486129226  Uiso  ?  O
O1  1.0  0.28566855985851436  0.281228014152891  0.6037162541483923  Uiso  ?  O
O1  1.0  0.320184346252211  0.28440165242516935  0.6023731382357399  Uiso  ?  O
O1  1.0  0.28760612398585256  0.24636618873780713  0.5666238422048611  Uiso  ?  O
O1  1.0  0.32058923442524884  0.24539173341826306  0.5661751144032303  Uiso  ?  O
O1  1.0  0.28249653045485396  0.2820224443856813  0.5682079065680647  Uiso  ?  O
O1  1.0  0.3244746228770063  0.2811004171608207  0.5672246519136297  Uiso  ?  O
Ce1  1.0  0.2670842505627606  0.22769165636505773  0.5509398528844185  Uiso  ?  Ce
Ce1  1.0  0.264394927127292  0.2646941968178726  0.5130002999637787  Uiso  ?  Ce
Ce1  1.0  0.30337458734354017  0.22848644346796557  0.5145277639786905  Uiso  ?  Ce
Ce1  1.0  0.3051370841130447  0.26542351421767424  0.5476284398529856  Uiso  ?  Ce
O1  1.0  0.2845419970176165  0.24650128870710725  0.5299041878085996  Uiso  ?  O
O1  1.0  0.32298900462169267  0.2448514585171052  0.5287212854276016  Uiso  ?  O
O1  1.0  0.2826490547680007  0.2818733306021991  0.5286829777599277  Uiso  ?  O
O1  1.0  0.3236411647101767  0.2815904296574534  0.5327060088520525  Uiso  ?  O
O1  1.0  0.28536399659621153  0.24610468627483534  0.4951047386140314  Uiso  ?  O
O1  1.0  0.3227568025962919  0.24561256253935368  0.4938644493062972  Uiso  ?  O
O1  1.0  0.2835659916509327  0.28332043555041947  0.49644474860350984  Uiso  ?  O
O1  1.0  0.32429396919828446  0.281611003085867  0.4935432290491678  Uiso  ?  O
Ce1  1.0  0.2673770399994895  0.22777186909707842  0.47380956223410736  Uiso  ?  Ce
Ce1  1.0  0.2660579689869596  0.2669356853527708  0.4384443631867441  Uiso  ?  Ce
Ce1  1.0  0.30450767244856825  0.2293518006870789  0.4367547009931693  Uiso  ?  Ce
Ce1  1.0  0.3043583807681629  0.2659976269870234  0.4752009057243129  Uiso  ?  Ce
O1  1.0  0.2866325931530294  0.24910383039888234  0.45692001210845734  Uiso  ?  O
O1  1.0  0.32112817466711724  0.24774142368865817  0.4585653723716174  Uiso  ?  O
O1  1.0  0.2820177671639446  0.28249722333120786  0.4531773631938503  Uiso  ?  O
O1  1.0  0.324242340249097  0.2831955829679817  0.4541173816302751  Uiso  ?  O
O1  1.0  0.2857605204263862  0.2454879031354523  0.4179980912671231  Uiso  ?  O
O1  1.0  0.32064193668268715  0.24520842734590478  0.4189465930856081  Uiso  ?  O
O1  1.0  0.28661497621130466  0.28337046295078766  0.41857632970038194  Uiso  ?  O
O1  1.0  0.3229576159167205  0.28431265584852783  0.4179021431489251  Uiso  ?  O
Ce1  1.0  0.26681720615063287  0.22828023111666237  0.3996109979936075  Uiso  ?  Ce
Ce1  1.0  0.2667807291293597  0.26619643195144566  0.36380840261770875  Uiso  ?  Ce
Ce1  1.0  0.3015523948061817  0.22776876688323416  0.36495458200781306  Uiso  ?  Ce
Ce1  1.0  0.30355546757899365  0.26493708651694803  0.4006459253773359  Uiso  ?  Ce
O1  1.0  0.28532758901440247  0.24523877504790775  0.3817645839249139  Uiso  ?  O
O1  1.0  0.3215930956923985  0.24760420661895607  0.38454099629111405  Uiso  ?  O
O1  1.0  0.28399472101348056  0.28534541151678644  0.3831911367577316  Uiso  ?  O
O1  1.0  0.32463148871449654  0.2839428299879984  0.3822928939230504  Uiso  ?  O
O1  1.0  0.28396782767890494  0.24688001373964302  0.3469790245760576  Uiso  ?  O
O1  1.0  0.3242892901136897  0.24439831614986293  0.3421791569803412  Uiso  ?  O
O1  1.0  0.28540662378520915  0.2830802353516642  0.34292637904018336  Uiso  ?  O
O1  1.0  0.3191042286366281  0.28507293733735767  0.34483321277764367  Uiso  ?  O
Ce1  1.0  0.2684291465578803  0.22867964761788015  0.3254169224129162  Uiso  ?  Ce
Ce1  1.0  0.2666278901843662  0.2651307790313962  0.28997484084134584  Uiso  ?  Ce
Ce1  1.0  0.30339111689195253  0.22959936150947835  0.2900266441369536  Uiso  ?  Ce
Ce1  1.0  0.3024873859457203  0.2658652823965579  0.32392221670769245  Uiso  ?  Ce
O1  1.0  0.2864994630587365  0.24623160630868587  0.3061064247919088  Uiso  ?  O
O1  1.0  0.3213553625015376  0.24488107711940385  0.30867974468654136  Uiso  ?  O
O1  1.0  0.28471395167917685  0.2838119177786813  0.3112282852369107  Uiso  ?  O
O1  1.0  0.3213798338503614  0.2844273295356675  0.30685355603478304  Uiso  ?  O
O1  1.0  0.2874116820823957  0.24858371880669647  0.2734349269421288  Uiso  ?  O
O1  1.0  0.32454857790523955  0.2436393633029941  0.27262497770783223  Uiso  ?  O
O1  1.0  0.2851227537262939  0.2829325688715183  0.2735355669494864  Uiso  ?  O
O1  1.0  0.3209349746603827  0.2828558350109983  0.2719339256072017  Uiso  ?  O
Ce1  1.0  0.26735598423441964  0.22895471927280808  0.25363971078379477  Uiso  ?  Ce
Ce1  1.0  0.26779099831800174  0.2657815432385367  0.21606261435100466  Uiso  ?  Ce
Ce1  1.0  0.30145387097702336  0.22757574009724948  0.21537393159809676  Uiso  ?  Ce
Ce1  1.0  0.3003765251098457  0.26211581884353363  0.2530692325361893  Uiso  ?  Ce
O1  1.0  0.28492721182951763  0.2481731839375651  0.2329208579796066  Uiso  ?  O
O1  1.0  0.3222237004866016  0.24291831270468942  0.2346255380806838  Uiso  ?  O
O1  1.0  0.2842509969774621  0.2834254105876187  0.23308522526110476  Uiso  ?  O
O1  1.0  0.32244177584267164  0.2848552039448713  0.23334955443609115  Uiso  ?  O
O1  1.0  0.2887863467594413  0.24668200478627914  0.19819029335887892  Uiso  ?  O
O1  1.0  0.32356558903746135  0.2459471361094567  0.19673933235222796  Uiso  ?  O
O1  1.0  0.28131283286952535  0.2819597766461267  0.19650575257332314  Uiso  ?  O
O1  1.0  0.3215955934423637  0.2828101673117658  0.19609799219605803  Uiso  ?  O
Ce1  1.0  0.2675756136427487  0.22726179508277633  0.1761404996764194  Uiso  ?  Ce
Ce1  1.0  0.3045742586309235  0.26419138953541565  0.1778810104194842  Uiso  ?  Ce
Ce1  1.0  0.34124024978744744  0.2630404921301183  0.8106395136236233  Uiso  ?  Ce
Ce1  1.0  0.3790222120461823  0.22699988588344705  0.809461132018541  Uiso  ?  Ce
O1  1.0  0.3576071095314132  0.24915127125976685  0.829170652625054  Uiso  ?  O
O1  1.0  0.396630099716842  0.2455567142865453  0.825123285722765  Uiso  ?  O
O1  1.0  0.35988794380489236  0.28288548712129963  0.8265344616380356  Uiso  ?  O
O1  1.0  0.3971005006685685  0.28391307458426013  0.8245036517196053  Uiso  ?  O
O1  1.0  0.36131683143397103  0.24809060805340863  0.7909506234455109  Uiso  ?  O
O1  1.0  0.39735200672873994  0.24592689894568484  0.7888595200888232  Uiso  ?  O
O1  1.0  0.35697098978828445  0.2836227225526852  0.790210618061697  Uiso  ?  O
O1  1.0  0.39638730193463817  0.2838860183812903  0.7905583860249947  Uiso  ?  O
Ce1  1.0  0.3384976895169311  0.2279083387348887  0.7739567823809859  Uiso  ?  Ce
Ce1  1.0  0.34239049416746614  0.2644193576183161  0.7353310021720497  Uiso  ?  Ce
Ce1  1.0  0.37772460145153236  0.22694120674026508  0.7349616721538361  Uiso  ?  Ce
Ce1  1.0  0.3774917750664118  0.2639562636033879  0.7713999260726092  Uiso  ?  Ce
O1  1.0  0.3601061944105579  0.243981950661145  0.7530386015569089  Uiso  ?  O
O1  1.0  0.39712195791014104  0.2463995454442169  0.7530332578915335  Uiso  ?  O
O1  1.0  0.3602380257117968  0.2835932670809554  0.7555070085902311  Uiso  ?  O
O1  1.0  0.39574913190673094  0.28250123608017474  0.7532617435475675  Uiso  ?  O
O1  1.0  0.36017006401248197  0.2457683685515983  0.7151871201124989  Uiso  ?  O
O1  1.0  0.39606117942965235  0.24611091414954403  0.7168008488385754  Uiso  ?  O
O1  1.0  0.35985723644436485  0.28423122502880166  0.7141383753758317  Uiso  ?  O
O1  1.0  0.3946683559585939  0.2841201689616815  0.7190768143399671  Uiso  ?  O
Ce1  1.0  0.3389213478314382  0.22876172262007274  0.6977783875534812  Uiso  ?  Ce
Ce1  1.0  0.34209315838335835  0.2660239766426296  0.6602938826161615  Uiso  ?  Ce
Ce1  1.0  0.38041429296511625  0.22766673352433975  0.657832469370338  Uiso  ?  Ce
Ce1  1.0  0.37938888811556337  0.26301574638275094  0.6962488495176014  Uiso  ?  Ce
O1  1.0  0.3598256373776985  0.24651394853026629  0.678149472667501  Uiso  ?  O
O1  1.0  0.39665291808848163  0.24629358460866144  0.6795837972453131  Uiso  ?  O
O1  1.0  0.3593411942734881  0.2834089498236512  0.6789266902328728  Uiso  ?  O
O1  1.0  0.39654578341390834  0.2829538957891399  0.6783611544332635  Uiso  ?  O
O1  1.0  0.3578361661467047  0.24562827458353365  0.6411627169350144  Uiso  ?  O
O1  1.0  0.3968399943087628  0.24702635483785546  0.642418498389915  Uiso  ?  O
O1  1.0  0.35845163607389174  0.28427019079355104  0.6430189445689761  Uiso  ?  O
O1  1.0  0.3965389172094984  0.28398452368644095  0.6447667152739889  Uiso  ?  O
Ce1  1.0  0.34028749596559227  0.22812603141402762  0.6228036793021826  Uiso  ?  Ce
Ce1  1.0  0.3411001416611432  0.2659890221072654  0.5886079404820695  Uiso  ?  Ce
Ce1  1.0  0.37601489727019344  0.23027471223957258  0.5871251909269466  Uiso  ?  Ce
Ce1  1.0  0.3784100198706996  0.26808128720860086  0.6248010328556876  Uiso  ?  Ce
O1  1.0  0.36024214160920665  0.24653976456280993  0.6032624297114167  Uiso  ?  O
O1  1.0  0.39838471526350216  0.2458897097699319  0.6047569024445558  Uiso  ?  O
O1  1.0  0.3593165327816557  0.2823437790737919  0.6048112137987075  Uiso  ?  O
O1  1.0  0.39583879654762744  0.2839027823013773  0.6042863947827152  Uiso  ?  O
O1  1.0  0.3586488906953856  0.24233439031695844  0.568230292510642  Uiso  ?  O
O1  1.0  0.3974652344520735  0.24698876666721248  0.5690026512692892  Uiso  ?  O
O1  1.0  0.3566633127284608  0.28415211922949274  0.5691822438225603  Uiso  ?  O
O1  1.0  0.3961194891393435  0.2825466772654053  0.5685591341526418  Uiso  ?  O
Ce1  1.0  0.34004786509249013  0.2277308646996329  0.5495684628428197  Uiso  ?  Ce
Ce1  1.0  0.34125392897272727  0.2629435870944718  0.5100228325250956  Uiso  ?  Ce
Ce1  1.0  0.3772247203175012  0.22977212633212896  0.5107907142119563  Uiso  ?  Ce
Ce1  1.0  0.3777241522578779  0.2653304643440901  0.5494353874314637  Uiso  ?  Ce
O1  1.0  0.35872818867582457  0.24595425728428488  0.5320040755649814  Uiso  ?  O
O1  1.0  0.3983706473737662  0.2446307200383442  0.5305513954041635  Uiso  ?  O
O1  1.0  0.3593927916743648  0.2826047754955944  0.5293072312647914  Uiso  ?  O
O1  1.0  0.3954958546116134  0.2850853670231  0.5315891612512007  Uiso  ?  O
O1  1.0  0.36127515177437086  0.24866636781628196  0.49085605418546835  Uiso  ?  O
O1  1.0  0.3941690090029428  0.24682968493511767  0.492114772681937  Uiso  ?  O
O1  1.0  0.3577802697166553  0.2848265698770813  0.4918307284093994  Uiso  ?  O
O1  1.0  0.3980526100149108  0.2843420375651632  0.49115994688939846  Uiso  ?  O
Ce1  1.0  0.3417101163318648  0.22613142889137605  0.47581877447031357  Uiso  ?  Ce
Ce1  1.0  0.33926215802745424  0.26551144266441223  0.43700300215114873  Uiso  ?  Ce
Ce1  1.0  0.3785059797514013  0.22922640232780514  0.43716600843257286  Uiso  ?  Ce
Ce1  1.0  0.37891086556015585  0.26561505837492205  0.47421984247571575  Uiso  ?  Ce
O1  1.0  0.35964569772918564  0.24509014424590497  0.45677599323383233  Uiso  ?  O
O1  1.0  0.39699081266588293  0.2458234002275891  0.4562260113670338  Uiso  ?  O
O1  1.0  0.3585825127640435  0.28372433253482715  0.4573073845003225  Uiso  ?  O
O1  1.0  0.398620556767145  0.28227459117449233  0.4561872521916486  Uiso  ?  O
O1  1.0  0.3588053645253187  0.24643161088801158  0.42216196482234203  Uiso  ?  O
O1  1.0  0.39706880146819773  0.24552038420889788  0.4199841556125948  Uiso  ?  O
O1  1.0  0.3581628471568344  0.28257622547071287  0.4210375988859853  Uiso  ?  O
O1  1.0  0.39612888718660894  0.28245680005816004  0.4202895944342615  Uiso  ?  O
Ce1  1.0  0.3400414342140537  0.23063109311438473  0.39985179890708894  Uiso  ?  Ce
Ce1  1.0  0.34023014049853634  0.26565335989067845  0.36301307582968956  Uiso  ?  Ce
Ce1  1.0  0.3779266453267976  0.22808965940737838  0.3631358117209274  Uiso  ?  Ce
Ce1  1.0  0.37920374733130435  0.2634915280238543  0.40025302011941116  Uiso  ?  Ce
O1  1.0  0.36087020919717144  0.24693547039180652  0.381033679182294  Uiso  ?  O
O1  1.0  0.3958167686963907  0.2483608315727782  0.38283679844488133  Uiso  ?  O
O1  1.0  0.3568203626048319  0.28531308915796766  0.38300922144097194  Uiso  ?  O
O1  1.0  0.3958835073618812  0.28190437669064616  0.38050428957181476  Uiso  ?  O
O1  1.0  0.3594471695573859  0.2449706572787818  0.34423183976726585  Uiso  ?  O
O1  1.0  0.39595173601576306  0.24580616538410502  0.34378985375868604  Uiso  ?  O
O1  1.0  0.361379399397033  0.28315980964840576  0.3454729708099455  Uiso  ?  O
O1  1.0  0.3950471353467343  0.2840727900692191  0.3463750570934991  Uiso  ?  O
Ce1  1.0  0.34179317962014427  0.22938473204568235  0.3276392238326016  Uiso  ?  Ce
Ce1  1.0  0.3413201637791421  0.2651997587637686  0.2887822146015582  Uiso  ?  Ce
Ce1  1.0  0.3787647887842109  0.22889985146918737  0.28836627484770827  Uiso  ?  Ce
Ce1  1.0  0.3792317731313896  0.266427596896656  0.326374302264405  Uiso  ?  Ce
O1  1.0  0.3604653804176119  0.24631423958652574  0.3068122552452068  Uiso  ?  O
O1  1.0  0.3961528271140679  0.24610150947317655  0.3056090856559786  Uiso  ?  O
O1  1.0  0.3605604037718059  0.2843676979072805  0.3084815443245293  Uiso  ?  O
O1  1.0  0.3949460254082317  0.28269007122866446  0.3073773705304716  Uiso  ?  O
O1  1.0  0.3597841562159962  0.24754280475595325  0.27139095587624296  Uiso  ?  O
O1  1.0  0.3961956377467043  0.24904156475228997  0.27298812351860163  Uiso  ?  O
O1  1.0  0.35950414173228024  0.2829809658322056  0.26906572679487817  Uiso  ?  O
O1  1.0  0.3963913664729965  0.2859204963955377  0.27008646250674373  Uiso  ?  O
Ce1  1.0  0.3421496889295551  0.22635062326853622  0.2545757401269343  Uiso  ?  Ce
Ce1  1.0  0.34079245215880494  0.2631872258614503  0.2157143664196593  Uiso  ?  Ce
Ce1  1.0  0.3781546353861409  0.23000054697748773  0.21525299536677134  Uiso  ?  Ce
Ce1  1.0  0.3804849078211044  0.26772262059476337  0.2542285512727147  Uiso  ?  Ce
O1  1.0  0.3594501054956561  0.24736074458497354  0.2331247849644034  Uiso  ?  O
O1  1.0  0.3975950240877829  0.24560622321453288  0.23399928847066775  Uiso  ?  O
O1  1.0  0.3584085964453913  0.2850140138841532  0.2347145850535228  Uiso  ?  O
O1  1.0  0.3965212302702065  0.2839971199563953  0.23267730523715394  Uiso  ?  O
O1  1.0  0.3590107953684864  0.24448369874591802  0.19820822414301553  Uiso  ?  O
O1  1.0  0.394757840102389  0.247279669184958  0.19626390532731486  Uiso  ?  O
O1  1.0  0.3596549386895281  0.28445870005798585  0.19645522946747554  Uiso  ?  O
O1  1.0  0.3953457864818644  0.2829256813073566  0.19777144283024176  Uiso  ?  O
Ce1  1.0  0.3394875951631001  0.22686838545175708  0.17774062611441535  Uiso  ?  Ce
Ce1  1.0  0.3790281619552832  0.26396066074588037  0.1769548403468803  Uiso  ?  Ce
Ce1  1.0  0.4146202250729914  0.26668355568883556  0.808790795360332  Uiso  ?  Ce
Ce1  1.0  0.4523451879010736  0.2288397560076762  0.8077956653113155  Uiso  ?  Ce
O1  1.0  0.4338302763919092  0.24417493865574616  0.826634160442173  Uiso  ?  O
O1  1.0  0.471139539374784  0.24693447522335418  0.8269542912521151  Uiso  ?  O
O1  1.0  0.43192533085972906  0.28385806818398746  0.8265550234629723  Uiso  ?  O
O1  1.0  0.4683077279213074  0.28351148658897674  0.828308528708093  Uiso  ?  O
O1  1.0  0.4339349782015199  0.24890681438640455  0.7927170450425155  Uiso  ?  O
O1  1.0  0.4724521537058388  0.24885187544306728  0.7877345548246093  Uiso  ?  O
O1  1.0  0.43494637209948817  0.2838337939298377  0.7897441776922078  Uiso  ?  O
O1  1.0  0.46818258037508975  0.28399507237087884  0.7877904071259562  Uiso  ?  O
Ce1  1.0  0.4150769305911791  0.22780758102244042  0.7716865487845146  Uiso  ?  Ce
Ce1  1.0  0.41420981865077977  0.26520568707962505  0.7325293879002117  Uiso  ?  Ce
Ce1  1.0  0.4503902441010312  0.22631876280017613  0.735531901128818  Uiso  ?  Ce
Ce1  1.0  0.45143675356674834  0.2630953127841409  0.7710235051806063  Uiso  ?  Ce
O1  1.0  0.43239161054576947  0.24672239757926961  0.7496895334819278  Uiso  ?  O
O1  1.0  0.4695080852820099  0.24698978557975185  0.7527287702630099  Uiso  ?  O
O1  1.0  0.4336148341419564  0.28509993285741475  0.7537190655904532  Uiso  ?  O
O1  1.0  0.46999616035906217  0.2844481307812047  0.7540219125515911  Uiso  ?  O
O1  1.0  0.43414799450170066  0.24637331393486325  0.7140535775040319  Uiso  ?  O
O1  1.0  0.46696280073051555  0.24536139815562383  0.7161272456767371  Uiso  ?  O
O1  1.0  0.43344362458557967  0.2834061916962253  0.7175746932390838  Uiso  ?  O
O1  1.0  0.4702371760642515  0.28272765528362054  0.714659061387121  Uiso  ?  O
Ce1  1.0  0.416687879908754  0.22825513425994418  0.697059353747331  Uiso  ?  Ce
Ce1  1.0  0.4146751949030197  0.2673751259691482  0.6605877122663555  Uiso  ?  Ce
Ce1  1.0  0.4523793097760438  0.2293266139076635  0.6598943265400801  Uiso  ?  Ce
Ce1  1.0  0.4510614470699603  0.268137655274309  0.6995845967023891  Uiso  ?  Ce
O1  1.0  0.4335793497301656  0.24716507885562086  0.6776763669403904  Uiso  ?  O
O1  1.0  0.4710838610656046  0.24745800013660624  0.678794191546023  Uiso  ?  O
O1  1.0  0.4345593044904788  0.2812284465523424  0.6777417953378656  Uiso  ?  O
O1  1.0  0.47259482526063756  0.2844467130921798  0.6800047068881881  Uiso  ?  O
O1  1.0  0.43435528759836367  0.24680406648157882  0.6422497322493298  Uiso  ?  O
O1  1.0  0.47233278073812707  0.2470389389979461  0.6438609725149699  Uiso  ?  O
O1  1.0  0.43304448610983776  0.28153280763745825  0.6443204267044044  Uiso  ?  O
O1  1.0  0.4711566961414762  0.2845626444079975  0.6398470208149544  Uiso  ?  O
Ce1  1.0  0.412245327378624  0.2263631924222894  0.6234146784806724  Uiso  ?  Ce
Ce1  1.0  0.41534594640399086  0.26682579814661217  0.5850456497414425  Uiso  ?  Ce
Ce1  1.0  0.45310281725164153  0.2272547196856  0.5854008584561893  Uiso  ?  Ce
Ce1  1.0  0.44956379512755074  0.26412454316332357  0.6241799950861646  Uiso  ?  Ce
O1  1.0  0.4348931982767583  0.24919375098287733  0.6055941245429116  Uiso  ?  O
O1  1.0  0.47045105168969115  0.24853713839058766  0.6032636674473282  Uiso  ?  O
O1  1.0  0.43616330385502033  0.2830905140603782  0.6067028923545229  Uiso  ?  O
O1  1.0  0.47256496286833755  0.28324294312246645  0.6053194874392603  Uiso  ?  O
O1  1.0  0.4335985118213042  0.24680710881838314  0.5661208273918794  Uiso  ?  O
O1  1.0  0.4716787970157134  0.2438176022707402  0.5691919660632129  Uiso  ?  O
O1  1.0  0.4347464794557182  0.28247210301536657  0.5671065822049403  Uiso  ?  O
O1  1.0  0.46969651085718045  0.28648400751795333  0.5659921094162126  Uiso  ?  O
Ce1  1.0  0.41544388901887874  0.22398831507652253  0.5510695641116458  Uiso  ?  Ce
Ce1  1.0  0.41615878231130027  0.2641393634120936  0.5103798314819878  Uiso  ?  Ce
Ce1  1.0  0.4530188537247214  0.2276967140781225  0.5105936718013364  Uiso  ?  Ce
Ce1  1.0  0.4518689182891695  0.2656469204497655  0.5497989846144994  Uiso  ?  Ce
O1  1.0  0.43534298896117746  0.24556758280014362  0.5276915018285385  Uiso  ?  O
O1  1.0  0.4722502273113564  0.24508384315850398  0.5294504201191325  Uiso  ?  O
O1  1.0  0.4349133815390439  0.28438317862310847  0.5295571416875459  Uiso  ?  O
O1  1.0  0.4692280662360613  0.28400303313315006  0.529484881244023  Uiso  ?  O
O1  1.0  0.4321832407959644  0.24786810162841372  0.49339528103486263  Uiso  ?  O
O1  1.0  0.47212894577670417  0.24461958046272153  0.49335309362049246  Uiso  ?  O
O1  1.0  0.43344929607170973  0.28167536634169016  0.49509227462775995  Uiso  ?  O
O1  1.0  0.4698456150960693  0.28397439375089795  0.494237621608698  Uiso  ?  O
Ce1  1.0  0.41395858255524337  0.22679764647534306  0.4739901019686845  Uiso  ?  Ce
Ce1  1.0  0.41385785988558105  0.26571101998958685  0.4372084057348109  Uiso  ?  Ce
Ce1  1.0  0.45265635422341005  0.22442795404663415  0.43680553682076556  Uiso  ?  Ce
Ce1  1.0  0.4548095527398048  0.26472968612372433  0.47432996374605274  Uiso  ?  Ce
O1  1.0  0.4349432915658579  0.2481090492456892  0.4556689054385371  Uiso  ?  O
O1  1.0  0.4718178761861061  0.24816757408061094  0.4571241577802816  Uiso  ?  O
O1  1.0  0.4320454501974679  0.2824993637528661  0.45699870723237673  Uiso  ?  O
O1  1.0  0.4719550281402397  0.28269064552020334  0.45688058887132815  Uiso  ?  O
O1  1.0  0.4331121273373367  0.24711018172068375  0.4194250625874914  Uiso  ?  O
O1  1.0  0.4692257687069644  0.2461235416210122  0.42009756090203126  Uiso  ?  O
O1  1.0  0.4362320811681527  0.28362263236375734  0.4170290470531158  Uiso  ?  O
O1  1.0  0.46996371779536433  0.28436344599978725  0.4207156662826379  Uiso  ?  O
Ce1  1.0  0.41425534710900797  0.22750101774672418  0.40058065408914284  Uiso  ?  Ce
Ce1  1.0  0.41597538520948035  0.26430725565630775  0.3652995422018344  Uiso  ?  Ce
Ce1  1.0  0.4517272845838682  0.2285472407787015  0.36281476813796304  Uiso  ?  Ce
Ce1  1.0  0.45164548724383274  0.2650502175022834  0.3997383227661154  Uiso  ?  Ce
O1  1.0  0.4342266341993608  0.24553289482949686  0.38139560636242864  Uiso  ?  O
O1  1.0  0.471157366847878  0.24605036914955322  0.38205250983103234  Uiso  ?  O
O1  1.0  0.43448302596625293  0.28332515772745276  0.381718246770012  Uiso  ?  O
O1  1.0  0.469163373064707  0.2838477137216533  0.3832169388324088  Uiso  ?  O
O1  1.0  0.43384221370599596  0.24547272847321744  0.34429932282207537  Uiso  ?  O
O1  1.0  0.4717551327604338  0.24435046822974094  0.3424895165622584  Uiso  ?  O
O1  1.0  0.4335298594717371  0.2816818976307012  0.3418048235359583  Uiso  ?  O
O1  1.0  0.4693172184933218  0.28382116593495  0.3477224766649378  Uiso  ?  O
Ce1  1.0  0.41557832820279594  0.22910322147857157  0.32612145784192165  Uiso  ?  Ce
Ce1  1.0  0.41522590654764874  0.26411317930081696  0.2880175723782418  Uiso  ?  Ce
Ce1  1.0  0.4497648900951359  0.22744825337139196  0.2867819118811154  Uiso  ?  Ce
Ce1  1.0  0.4531244539141932  0.2640555785132564  0.3282851677812371  Uiso  ?  Ce
O1  1.0  0.434092016673662  0.24940084780171887  0.3088195416559427  Uiso  ?  O
O1  1.0  0.46987042659841294  0.24551664131477477  0.3078039438469664  Uiso  ?  O
O1  1.0  0.4335475696912808  0.28416923227399543  0.3079443937959221  Uiso  ?  O
O1  1.0  0.470463990286226  0.2826675488405829  0.30812928286984026  Uiso  ?  O
O1  1.0  0.4334021005916146  0.2463184150613438  0.2684058403126718  Uiso  ?  O
O1  1.0  0.4707845031696232  0.24620426879170001  0.269980381621837  Uiso  ?  O
O1  1.0  0.4320147537841366  0.2834277424870187  0.27075378560171975  Uiso  ?  O
O1  1.0  0.4684358126096328  0.2847957354276906  0.26878145683535415  Uiso  ?  O
Ce1  1.0  0.41665107455831957  0.22825457570832297  0.252871101556836  Uiso  ?  Ce
Ce1  1.0  0.41500576674816153  0.26456668887971196  0.21466896218200707  Uiso  ?  Ce
Ce1  1.0  0.4505400627543493  0.22571875903368774  0.21515560680668075  Uiso  ?  Ce
Ce1  1.0  0.45369352560190046  0.2643531343552334  0.251220905553874  Uiso  ?  Ce
O1  1.0  0.431463247422449  0.2485872363763922  0.23387769176091375  Uiso  ?  O
O1  1.0  0.46792363254814884  0.24726862353481302  0.23347544165373346  Uiso  ?  O
O1  1.0  0.43522106814075484  0.2851618185314946  0.2333555570047004  Uiso  ?  O
O1  1.0  0.4725694436945261  0.2826420976157011  0.23252213716458264  Uiso  ?  O
O1  1.0  0.4327457906040472  0.2496813585918074  0.1963059188713958  Uiso  ?  O
O1  1.0  0.47054259979421936  0.24627050203865583  0.19777512918362067  Uiso  ?  O
O1  1.0  0.43382426595564844  0.28406040546788724  0.19791266622032236  Uiso  ?  O
O1  1.0  0.4699989045691744  0.2837847294002976  0.19559559271163768  Uiso  ?  O
Ce1  1.0  0.416686146768626  0.22753523127135628  0.17765759152048538  Uiso  ?  Ce
Ce1  1.0  0.45238524509282035  0.26451959287930876  0.1778153895153243  Uiso  ?  Ce
Ce1  1.0  0.48814319407859913  0.26436412739668574  0.8087266320245557  Uiso  ?  Ce
Ce1  1.0  0.5273074004230069  0.22814206012231353  0.809186055258779  Uiso  ?  Ce
O1  1.0  0.5069013871528388  0.24657125986637518  0.8268719799228333  Uiso  ?  O
O1  1.0  0.5449279170793717  0.24457938240833546  0.8272831071477403  Uiso  ?  O
O1  1.0  0.5082321624528805  0.2847372869886407  0.8255902752456591  Uiso  ?  O
O1  1.0  0.5447762858280724  0.2840655050690723  0.8270517950628442  Uiso  ?  O
O1  1.0  0.5075440664016302  0.247628770094753  0.7915051140058326  Uiso  ?  O
O1  1.0  0.5455354677102675  0.24630818967629256  0.7889922246879466  Uiso  ?  O
O1  1.0  0.5079030902817017  0.28350343619750734  0.7883563605109184  Uiso  ?  O
O1  1.0  0.5430920301578934  0.2842510147968398  0.7891045938255419  Uiso  ?  O
Ce1  1.0  0.4897447543906586  0.2271766978514962  0.770724648512358  Uiso  ?  Ce
Ce1  1.0  0.4901085680691993  0.26302615274627195  0.733205439714585  Uiso  ?  Ce
Ce1  1.0  0.527313681797489  0.22667878133564257  0.7320805716495146  Uiso  ?  Ce
Ce1  1.0  0.524946576779453  0.2666996495539133  0.7709736988218979  Uiso  ?  Ce
O1  1.0  0.5067064396262374  0.246016999992418  0.7537314901041702  Uiso  ?  O
O1  1.0  0.545700522543846  0.24855694363411318  0.7517499474318624  Uiso  ?  O
O1  1.0  0.5086631291292077  0.2822815668587392  0.756397294908854  Uiso  ?  O
O1  1.0  0.54512401270608  0.2813512560503002  0.7533843245493669  Uiso  ?  O
O1  1.0  0.5054975159412607  0.24435807429434753  0.7164364467515307  Uiso  ?  O
O1  1.0  0.5447048449453863  0.24510120198793808  0.7141052525673542  Uiso  ?  O
O1  1.0  0.5085306605415739  0.28552271983750005  0.7178413470427494  Uiso  ?  O
O1  1.0  0.5445247215457282  0.28600459342441586  0.7174836747483637  Uiso  ?  O
Ce1  1.0  0.48846126803482515  0.2272118750846127  0.6960319213400668  Uiso  ?  Ce
Ce1  1.0  0.4909098136389379  0.2645636039612809  0.6595186738173444  Uiso  ?  Ce
Ce1  1.0  0.5258972017971598  0.22585783711248114  0.6595681511589072  Uiso  ?  Ce
Ce1  1.0  0.5273488202127931  0.2664467466337299  0.6981947839189502  Uiso  ?  Ce
O1  1.0  0.5084993722456054  0.2490104306184334  0.6779990522786515  Uiso  ?  O
O1  1.0  0.5450307207443553  0.2446038065144125  0.6769847939688758  Uiso  ?  O
O1  1.0  0.5072277783017444  0.28397834296753693  0.6766928518329766  Uiso  ?  O
O1  1.0  0.5439362919625845  0.28296425115549356  0.6785508083824179  Uiso  ?  O
O1  1.0  0.5089134619103276  0.24435856582870302  0.6446673206548668  Uiso  ?  O
O1  1.0  0.5449974037385564  0.24838013690933977  0.6407509602924936  Uiso  ?  O
O1  1.0  0.5063426180008131  0.2848254787267345  0.6407877171274738  Uiso  ?  O
O1  1.0  0.5450812144390953  0.2861099587208614  0.6427777129056711  Uiso  ?  O
Ce1  1.0  0.4889570035407684  0.2286538430997628  0.6211326819027773  Uiso  ?  Ce
Ce1  1.0  0.48941664911044963  0.2674452218206239  0.587215119282215  Uiso  ?  Ce
Ce1  1.0  0.5250924236027877  0.22954165812596855  0.5858289785610495  Uiso  ?  Ce
Ce1  1.0  0.5241704413247726  0.26590736335694687  0.6256918304836491  Uiso  ?  Ce
O1  1.0  0.5087805602026463  0.24834448006273577  0.604772724947546  Uiso  ?  O
O1  1.0  0.545686654706097  0.2457627985612325  0.6046897113894788  Uiso  ?  O
O1  1.0  0.5076903067975241  0.2821007001880951  0.6056625379624505  Uiso  ?  O
O1  1.0  0.5436467400226909  0.2840846159869958  0.6050357833148532  Uiso  ?  O
O1  1.0  0.5055911217309087  0.24750706184323126  0.5667515074792194  Uiso  ?  O
O1  1.0  0.5466917289943335  0.24813863737946873  0.5677511840107653  Uiso  ?  O
O1  1.0  0.5065031175790905  0.28564041180796157  0.5678388048485111  Uiso  ?  O
O1  1.0  0.5426339831959369  0.28497900242336516  0.5676005046549402  Uiso  ?  O
Ce1  1.0  0.487346489769442  0.22870120016826212  0.5493482993287495  Uiso  ?  Ce
Ce1  1.0  0.4880027272648178  0.2669537430598565  0.5124476499502625  Uiso  ?  Ce
Ce1  1.0  0.5279261984267173  0.22756250811692272  0.5121254789110267  Uiso  ?  Ce
Ce1  1.0  0.5271901844300658  0.2675394160148427  0.5491463890384087  Uiso  ?  Ce
O1  1.0  0.5080407966599502  0.2469182229544347  0.5290002737208004  Uiso  ?  O
O1  1.0  0.5447871111899643  0.24513700337390884  0.5309338849276292  Uiso  ?  O
O1  1.0  0.5060116757051667  0.28484630638107017  0.5287569389655257  Uiso  ?  O
O1  1.0  0.5414920155603206  0.286042896873042  0.5314457740070082  Uiso  ?  O
O1  1.0  0.5070145799668687  0.2508070408201336  0.4935378400455148  Uiso  ?  O
O1  1.0  0.5469357821813644  0.2476062347225083  0.49195938136806766  Uiso  ?  O
O1  1.0  0.5055083926895578  0.28166534202279403  0.49260263937814647  Uiso  ?  O
O1  1.0  0.5424052111651033  0.28419477743524435  0.49486887995827256  Uiso  ?  O
Ce1  1.0  0.487933332885984  0.23059725353057609  0.4720435042896722  Uiso  ?  Ce
Ce1  1.0  0.48773358255483357  0.2631243270826413  0.43846270595845294  Uiso  ?  Ce
Ce1  1.0  0.528449798244046  0.22953123022173047  0.43862931430622315  Uiso  ?  Ce
Ce1  1.0  0.5249467475104519  0.2658163492735981  0.4743321105946102  Uiso  ?  Ce
O1  1.0  0.5068253690080331  0.24579623732897535  0.45712610026326544  Uiso  ?  O
O1  1.0  0.5437159392994508  0.2467810642104311  0.4551628194470549  Uiso  ?  O
O1  1.0  0.5070931079039458  0.2852744349750142  0.4590851215887942  Uiso  ?  O
O1  1.0  0.5461250937104931  0.28375072869097606  0.4572978377778624  Uiso  ?  O
O1  1.0  0.5077682776009669  0.24606658503669138  0.4188478783510109  Uiso  ?  O
O1  1.0  0.5440556572867841  0.24872098674905138  0.41781598407217413  Uiso  ?  O
O1  1.0  0.5085303555549125  0.28166236181843496  0.4180235024900427  Uiso  ?  O
O1  1.0  0.5445238387670576  0.28365169688303354  0.42042900623680945  Uiso  ?  O
Ce1  1.0  0.4878571303698048  0.22907225701244924  0.40069456135868353  Uiso  ?  Ce
Ce1  1.0  0.4882870153867118  0.264222494903975  0.3618282703430463  Uiso  ?  Ce
Ce1  1.0  0.5265673420017944  0.2281334644006777  0.36395679728989916  Uiso  ?  Ce
Ce1  1.0  0.527201105849214  0.2662181535996773  0.3995947500072622  Uiso  ?  Ce
O1  1.0  0.5070179264533755  0.24608211048560946  0.38426030284059204  Uiso  ?  O
O1  1.0  0.5439087572817821  0.2508034592952318  0.38184550095344333  Uiso  ?  O
O1  1.0  0.5089594591878316  0.2826305767809921  0.3823269676625117  Uiso  ?  O
O1  1.0  0.5449437610445715  0.2830926886334329  0.38161463264257084  Uiso  ?  O
O1  1.0  0.5076711517963817  0.24749145413715018  0.34385658224523763  Uiso  ?  O
O1  1.0  0.5445067635713153  0.24717597113085407  0.34587879935151167  Uiso  ?  O
O1  1.0  0.5078565867712688  0.2847546201028406  0.34483193805538676  Uiso  ?  O
O1  1.0  0.5437259064062793  0.2843383502216445  0.3452837206660532  Uiso  ?  O
Ce1  1.0  0.4867283642903118  0.22693160516558675  0.3243881958460107  Uiso  ?  Ce
Ce1  1.0  0.4925361599955572  0.2662571326251421  0.28701735278408463  Uiso  ?  Ce
Ce1  1.0  0.525181696802688  0.2256985993024819  0.28871328243571076  Uiso  ?  Ce
Ce1  1.0  0.525924782724988  0.26514675435737456  0.3255938351195051  Uiso  ?  Ce
O1  1.0  0.5074500621440603  0.2491157117873345  0.30843260040530057  Uiso  ?  O
O1  1.0  0.5450588208525443  0.24640120969694781  0.3088136013984685  Uiso  ?  O
O1  1.0  0.5043023406498857  0.2839360040577063  0.3088525649658335  Uiso  ?  O
O1  1.0  0.5436895289409002  0.2843670073853902  0.30990975042529983  Uiso  ?  O
O1  1.0  0.5088553709585134  0.24583770279753328  0.2704104925633168  Uiso  ?  O
O1  1.0  0.5450663170669329  0.24557120762804255  0.2700681837660371  Uiso  ?  O
O1  1.0  0.5067963794058202  0.2856179038518075  0.2704394499926782  Uiso  ?  O
O1  1.0  0.5460578773304  0.28334473186441156  0.2717985126705779  Uiso  ?  O
Ce1  1.0  0.48720438745129035  0.22855770639184775  0.25277413466230236  Uiso  ?  Ce
Ce1  1.0  0.48911425172393863  0.26503285176822766  0.21419530272590817  Uiso  ?  Ce
Ce1  1.0  0.525184904647795  0.22772005959050956  0.216043423938882  Uiso  ?  Ce
Ce1  1.0  0.5275405308075803  0.2663439593048811  0.25325130771097576  Uiso  ?  Ce
O1  1.0  0.5046626449195993  0.24855013515120458  0.23167052136956118  Uiso  ?  O
O1  1.0  0.5446072891046122  0.24479616135207347  0.2324648157632097  Uiso  ?  O
O1  1.0  0.5085313624124612  0.28358810862809536  0.23179637753502577  Uiso  ?  O
O1  1.0  0.543955300209581  0.2845814551734125  0.2353503745880331  Uiso  ?  O
O1  1.0  0.5064920698924656  0.2481957605058642  0.19660069720348045  Uiso  ?  O
O1  1.0  0.546181973925862  0.2456739297956516  0.1962620444134503  Uiso  ?  O
O1  1.0  0.5103803349165423  0.2835406500892126  0.19836953229071927  Uiso  ?  O
O1  1.0  0.5437284904371043  0.285075424508718  0.19616194536224632  Uiso  ?  O
Ce1  1.0  0.49021674433331824  0.22847322065937137  0.17941101531715636  Uiso  ?  Ce
Ce1  1.0  0.5280809644331776  0.2643664995416927  0.17749959300900148  Uiso  ?  Ce
Ce1  1.0  0.5619249907058701  0.2637070880064399  0.8078616431926902  Uiso  ?  Ce
Ce1  1.0  0.6002018297908295  0.22945008439110218  0.8077072483160408  Uiso  ?  Ce
O1  1.0  0.5819107631351824  0.2500875161884349  0.8274981133642639  Uiso  ?  O
O1  1.0  0.6171434478459474  0.24576825990882425  0.8278406038007372  Uiso  ?  O
O1  1.0  0.5807902757709609  0.28648259634063455  0.8272052323673458  Uiso  ?  O
O1  1.0  0.6202059429529242  0.2848257613755274  0.8268747743503538  Uiso  ?  O
O1  1.0  0.5832276861908375  0.2456087903172613  0.7891724631505594  Uiso  ?  O
O1  1.0  0.6189331887751187  0.24592726592810696  0.7907698442298958  Uiso  ?  O
O1  1.0  0.5792325639723624  0.28221811246177075  0.7896201518843444  Uiso  ?  O
O1  1.0  0.618826884886947  0.28245255488495624  0.7880755279771906  Uiso  ?  O
Ce1  1.0  0.5637928801670772  0.2278435946912811  0.7704216379321184  Uiso  ?  Ce
Ce1  1.0  0.5613303911756552  0.2637418376545896  0.7344388875519512  Uiso  ?  Ce
Ce1  1.0  0.6006298036684303  0.2268990722621791  0.7369625188859853  Uiso  ?  Ce
Ce1  1.0  0.6001488241389346  0.26438786753489524  0.769953083942994  Uiso  ?  Ce
O1  1.0  0.5816271687666064  0.25023783355506485  0.7527524106721197  Uiso  ?  O
O1  1.0  0.6194847706661084  0.24570364721244656  0.7543150522703282  Uiso  ?  O
O1  1.0  0.5814283542691726  0.28508838462512137  0.7531398439951384  Uiso  ?  O
O1  1.0  0.6198911170361798  0.2821393192231293  0.7537110591244301  Uiso  ?  O
O1  1.0  0.5813506994137696  0.2462803955941952  0.7143704889288303  Uiso  ?  O
O1  1.0  0.6192203165446909  0.25044426480695847  0.7160750606155903  Uiso  ?  O
O1  1.0  0.5822172501137984  0.2866245384025344  0.7155025023977909  Uiso  ?  O
O1  1.0  0.6184842738337728  0.28412546190191323  0.7178795671528475  Uiso  ?  O
Ce1  1.0  0.5638218039463181  0.22978779760823145  0.6995911197476902  Uiso  ?  Ce
Ce1  1.0  0.5614122671287077  0.26564770442714436  0.6585524960354967  Uiso  ?  Ce
Ce1  1.0  0.6031518673402282  0.23026897945771346  0.6577168841684977  Uiso  ?  Ce
Ce1  1.0  0.6009687186851539  0.26679994178326566  0.6992888382594832  Uiso  ?  Ce
O1  1.0  0.5818490564480903  0.2440537423514331  0.6770200794799491  Uiso  ?  O
O1  1.0  0.6176586317221973  0.24751701164825363  0.6763299068177879  Uiso  ?  O
O1  1.0  0.581747532768436  0.2856704901723166  0.6782768434214533  Uiso  ?  O
O1  1.0  0.6202387099231752  0.2820023967379201  0.6802211191762597  Uiso  ?  O
O1  1.0  0.5818443959217793  0.2481664324199572  0.6429691510717619  Uiso  ?  O
O1  1.0  0.6179461972553387  0.24498047961106278  0.6404241226015951  Uiso  ?  O
O1  1.0  0.5817833884242849  0.2836829051511202  0.6407900418600011  Uiso  ?  O
O1  1.0  0.6195012763094883  0.28318956127278283  0.6420227939306586  Uiso  ?  O
Ce1  1.0  0.5613404331547093  0.2276145014575669  0.6257795922221773  Uiso  ?  Ce
Ce1  1.0  0.5648170884118111  0.2651362185718961  0.5851085974355699  Uiso  ?  Ce
Ce1  1.0  0.6004692029448979  0.22907192083387076  0.5848971762087238  Uiso  ?  Ce
Ce1  1.0  0.5998607825383476  0.26355950381447285  0.622488462012608  Uiso  ?  Ce
O1  1.0  0.5836484461268194  0.24531062194210068  0.6031367491458495  Uiso  ?  O
O1  1.0  0.6172065876840825  0.24565216726296002  0.6037558349199752  Uiso  ?  O
O1  1.0  0.5804169337280268  0.2807319287464378  0.602395145817777  Uiso  ?  O
O1  1.0  0.6197593470241498  0.28474478490140526  0.6043742901344822  Uiso  ?  O
O1  1.0  0.5816680535107162  0.2485993327088948  0.56496529494524  Uiso  ?  O
O1  1.0  0.6190086492093566  0.24887377370350083  0.5671769935909017  Uiso  ?  O
O1  1.0  0.5822114241742855  0.282974115793844  0.5656523871857791  Uiso  ?  O
O1  1.0  0.6185534248405674  0.2826485104354681  0.566430080465785  Uiso  ?  O
Ce1  1.0  0.5638053999355312  0.22903002383767418  0.5513085900481545  Uiso  ?  Ce
Ce1  1.0  0.5643175311625765  0.2631887424173328  0.5127480463475664  Uiso  ?  Ce
Ce1  1.0  0.5982903144541097  0.2278628410011156  0.5110716092606872  Uiso  ?  Ce
Ce1  1.0  0.5980609960334157  0.26494783547106027  0.5510911166867511  Uiso  ?  Ce
O1  1.0  0.5830773914636793  0.24662507434077222  0.5285825117653233  Uiso  ?  O
O1  1.0  0.6224703152805219  0.24696143458820285  0.5317279713896607  Uiso  ?  O
O1  1.0  0.5819024614442135  0.28183825654831707  0.528739860995759  Uiso  ?  O
O1  1.0  0.6195406431742878  0.2825776849191203  0.5294873459696273  Uiso  ?  O
O1  1.0  0.5828494062040653  0.2492105772096102  0.4904480932477909  Uiso  ?  O
O1  1.0  0.6199696952626237  0.2460611889116305  0.49454426733106005  Uiso  ?  O
O1  1.0  0.5791813069646717  0.28342985743311183  0.4946638184439576  Uiso  ?  O
O1  1.0  0.6179312488708634  0.2833301507615898  0.49255346922302673  Uiso  ?  O
Ce1  1.0  0.5624672195605604  0.22870916504765623  0.47481425538991384  Uiso  ?  Ce
Ce1  1.0  0.5637529159004923  0.26507218944635075  0.43525026098504954  Uiso  ?  Ce
Ce1  1.0  0.6012923278830569  0.2295234895866225  0.4366696440211134  Uiso  ?  Ce
Ce1  1.0  0.6009202944340839  0.2660053094561548  0.4753874836107417  Uiso  ?  Ce
O1  1.0  0.5819478423453602  0.24476181495747967  0.4555266236586961  Uiso  ?  O
O1  1.0  0.6184006659726576  0.24659296053724727  0.45627959651771194  Uiso  ?  O
O1  1.0  0.5804789856077827  0.2829722601597338  0.45346573100049326  Uiso  ?  O
O1  1.0  0.6182088664997023  0.2836989963528383  0.4560483864898537  Uiso  ?  O
O1  1.0  0.5812083431409287  0.24480299089875768  0.4196983386201515  Uiso  ?  O
O1  1.0  0.6190131333852901  0.2466997360423935  0.4207395687987674  Uiso  ?  O
O1  1.0  0.5844986578647254  0.2874221891579487  0.4182066959182643  Uiso  ?  O
O1  1.0  0.6197354303026155  0.28440768811370193  0.42057442081056157  Uiso  ?  O
Ce1  1.0  0.5617642716916231  0.223706438661127  0.40026895579842847  Uiso  ?  Ce
Ce1  1.0  0.5620943159444503  0.2678166123539089  0.3636227297109011  Uiso  ?  Ce
Ce1  1.0  0.6014256171498215  0.22886308141120648  0.36312345404416807  Uiso  ?  Ce
Ce1  1.0  0.5992742450434789  0.26478323123270475  0.4028945812889353  Uiso  ?  Ce
O1  1.0  0.5817278808068049  0.247455707831777  0.3832472298204199  Uiso  ?  O
O1  1.0  0.6211025658734095  0.24782161407526948  0.3842992503350542  Uiso  ?  O
O1  1.0  0.5805909499138752  0.28147761521200126  0.380569299530342  Uiso  ?  O
O1  1.0  0.6185559418515356  0.285348061249456  0.38033392881338773  Uiso  ?  O
O1  1.0  0.5820074658461409  0.24652016888828082  0.3451583807384007  Uiso  ?  O
O1  1.0  0.6177789141927816  0.24612092196826704  0.34475483760227255  Uiso  ?  O
O1  1.0  0.5825109346703056  0.28179559156422695  0.3479748348691898  Uiso  ?  O
O1  1.0  0.6172966516184559  0.28556092133227745  0.3461062831141597  Uiso  ?  O
Ce1  1.0  0.5622143742146226  0.227932944370434  0.3271672081836203  Uiso  ?  Ce
Ce1  1.0  0.5632800760116397  0.26497856021784594  0.2883617626007406  Uiso  ?  Ce
Ce1  1.0  0.5985030213268588  0.22761776680804316  0.2893089161561587  Uiso  ?  Ce
Ce1  1.0  0.6014891671530262  0.2650014184724414  0.32620164548154296  Uiso  ?  Ce
O1  1.0  0.5799518177425145  0.24777362405146444  0.30894127328614795  Uiso  ?  O
O1  1.0  0.6178077114005621  0.24811700262297004  0.30481758338588855  Uiso  ?  O
O1  1.0  0.5787635341682165  0.283101237971554  0.30735097952713236  Uiso  ?  O
O1  1.0  0.6203818281491292  0.2837280882598579  0.3078225403563516  Uiso  ?  O
O1  1.0  0.5833769769503595  0.24733233029555873  0.27075991046362236  Uiso  ?  O
O1  1.0  0.6197338003342785  0.24670812173738055  0.2691324996954246  Uiso  ?  O
O1  1.0  0.5823134693960131  0.2827635974414116  0.2703044769096704  Uiso  ?  O
O1  1.0  0.6170615653247192  0.28178103828600193  0.27192092290942854  Uiso  ?  O
Ce1  1.0  0.5641408335251322  0.2281780146191947  0.25243125097181784  Uiso  ?  Ce
Ce1  1.0  0.5631457013829705  0.2659705254580226  0.21643500637516683  Uiso  ?  Ce
Ce1  1.0  0.6012043178876426  0.22930710428319873  0.21571824895709124  Uiso  ?  Ce
Ce1  1.0  0.599003965399405  0.2645953200820546  0.2536922377318665  Uiso  ?  Ce
O1  1.0  0.5820112917402457  0.24755233936694865  0.23485039669470384  Uiso  ?  O
O1  1.0  0.6180513503405992  0.24725621403578918  0.23390905443810328  Uiso  ?  O
O1  1.0  0.5793086366287867  0.28209797390031177  0.2316068702125923  Uiso  ?  O
O1  1.0  0.5821135459961687  0.2454380270484683  0.1953940905414591  Uiso  ?  O
Ce1  1.0  0.5626956109338112  0.22565100030447108  0.17834128319504503  Uiso  ?  Ce
Ce1  1.0  0.6382626775562342  0.26382544997706725  0.8057331734961521  Uiso  ?  Ce
Ce1  1.0  0.6737319339836231  0.22732598281747804  0.8078168679506477  Uiso  ?  Ce
O1  1.0  0.6572566683794762  0.2466782820791828  0.8256306438246405  Uiso  ?  O
O1  1.0  0.6931867685390244  0.24780940198979817  0.829192717346772  Uiso  ?  O
O1  1.0  0.6547816983503082  0.28352434719256503  0.8260854956679787  Uiso  ?  O
O1  1.0  0.6932995063011641  0.282588693804346  0.8267314106809165  Uiso  ?  O
O1  1.0  0.6532798837396521  0.24647779592110464  0.7881429871546393  Uiso  ?  O
O1  1.0  0.6919463708216457  0.2447208945386994  0.7894776506565682  Uiso  ?  O
O1  1.0  0.6562994530924721  0.2862450517259313  0.7909544395127138  Uiso  ?  O
O1  1.0  0.6946773336065492  0.2799324596985191  0.7902775792422845  Uiso  ?  O
Ce1  1.0  0.6377157768000694  0.22546652352338434  0.7708246850944183  Uiso  ?  Ce
Ce1  1.0  0.638617419952219  0.26401136239376943  0.7361578195583403  Uiso  ?  Ce
Ce1  1.0  0.6747560858009942  0.22685640210841201  0.7318915574609213  Uiso  ?  Ce
Ce1  1.0  0.6740675762257179  0.265372970157317  0.7723904223990951  Uiso  ?  Ce
O1  1.0  0.6570842539482861  0.24182933569537504  0.7519530386216104  Uiso  ?  O
O1  1.0  0.6926970029112153  0.24776785667754858  0.7498311431195789  Uiso  ?  O
O1  1.0  0.6552884651371428  0.2826302651955106  0.7511234038732754  Uiso  ?  O
O1  1.0  0.6933767851697371  0.28387244257073  0.7537094865963121  Uiso  ?  O
O1  1.0  0.6555057126546153  0.2479798472482667  0.7154594732554798  Uiso  ?  O
O1  1.0  0.6927052564891999  0.24443170254914623  0.7145665541209957  Uiso  ?  O
O1  1.0  0.6567133672459963  0.28401541507299394  0.7166583902128743  Uiso  ?  O
O1  1.0  0.6920676573170306  0.2838311777150767  0.7159151384908743  Uiso  ?  O
Ce1  1.0  0.6363009935111924  0.2274707638026981  0.6978683833904155  Uiso  ?  Ce
Ce1  1.0  0.6367183756641005  0.26498208795222694  0.660283414262175  Uiso  ?  Ce
Ce1  1.0  0.6751188186303642  0.22634140316528117  0.6590645552032605  Uiso  ?  Ce
Ce1  1.0  0.6761770878324956  0.2628990228571483  0.6980667188951459  Uiso  ?  Ce
O1  1.0  0.6562432713491859  0.2466869533325757  0.6763042270701448  Uiso  ?  O
O1  1.0  0.6949245032091418  0.24684104937836748  0.6782119506292756  Uiso  ?  O
O1  1.0  0.655529238286443  0.2851949993251847  0.6817016569328835  Uiso  ?  O
O1  1.0  0.6906070542823279  0.28173877826283694  0.6783657654393491  Uiso  ?  O
O1  1.0  0.6569523882591697  0.24638931329940952  0.6432527968777825  Uiso  ?  O
O1  1.0  0.6931279104319844  0.24554843625368522  0.644232903465153  Uiso  ?  O
O1  1.0  0.6581388124238572  0.28403847772657026  0.6414196140624884  Uiso  ?  O
O1  1.0  0.6916538303994368  0.28086810819474217  0.6438119015888889  Uiso  ?  O
Ce1  1.0  0.6383169606940089  0.22623920480223417  0.6259819796791848  Uiso  ?  Ce
Ce1  1.0  0.6379860931096866  0.26582419565476584  0.584940680383255  Uiso  ?  Ce
Ce1  1.0  0.6728693826189821  0.22818558255258353  0.5858258334274759  Uiso  ?  Ce
Ce1  1.0  0.6748208539465611  0.262961782721482  0.6234153043081225  Uiso  ?  Ce
O1  1.0  0.653591721960492  0.2458317344945602  0.605841389408441  Uiso  ?  O
O1  1.0  0.6925961751583811  0.2454494603785003  0.6049699409659778  Uiso  ?  O
O1  1.0  0.6551990835996463  0.2842631665257221  0.6050461268577552  Uiso  ?  O
O1  1.0  0.6939779526840516  0.2838675596225942  0.6064369133055432  Uiso  ?  O
O1  1.0  0.6540485349245447  0.2460827018688687  0.566455435208663  Uiso  ?  O
O1  1.0  0.6961017830794521  0.24612240026377458  0.5663231470344424  Uiso  ?  O
O1  1.0  0.654523885994302  0.2832226766319898  0.565813590958694  Uiso  ?  O
O1  1.0  0.6925314492246885  0.2835539545561908  0.5674309139917586  Uiso  ?  O
Ce1  1.0  0.6383888829894098  0.22844470253521462  0.5483177956152825  Uiso  ?  Ce
Ce1  1.0  0.6338493863779616  0.2646781996180963  0.5107344341908807  Uiso  ?  Ce
Ce1  1.0  0.6735373089318974  0.22640860685650122  0.5145459093458133  Uiso  ?  Ce
Ce1  1.0  0.6738428771565625  0.2662828457384506  0.5483624669661833  Uiso  ?  Ce
O1  1.0  0.6580331023593633  0.24564534227824994  0.5279623307991892  Uiso  ?  O
O1  1.0  0.6929656617218114  0.24646688878330186  0.5305202339316877  Uiso  ?  O
O1  1.0  0.6568447137813526  0.2843572197676051  0.5328301283418357  Uiso  ?  O
O1  1.0  0.6934218361953013  0.2830431772323234  0.5292326304855275  Uiso  ?  O
O1  1.0  0.6555996128892513  0.24653787273794692  0.492688925331078  Uiso  ?  O
O1  1.0  0.6920353242913835  0.24684356763921403  0.4935128710656835  Uiso  ?  O
O1  1.0  0.6549100409074657  0.284715065782273  0.49220793872212776  Uiso  ?  O
O1  1.0  0.6927022313981485  0.28217281335423844  0.4947386934690465  Uiso  ?  O
Ce1  1.0  0.6378213350664947  0.22686428471600134  0.47576828180388103  Uiso  ?  Ce
Ce1  1.0  0.6355408697409216  0.2676256216172561  0.43709174658593725  Uiso  ?  Ce
Ce1  1.0  0.6730231621850803  0.22897547460282985  0.4378539997788105  Uiso  ?  Ce
Ce1  1.0  0.673908529011633  0.26470521334492736  0.47592523269185333  Uiso  ?  Ce
O1  1.0  0.6518358127555693  0.24425538894719606  0.4584930417946446  Uiso  ?  O
O1  1.0  0.693779406838709  0.2469562891046277  0.453847942463167  Uiso  ?  O
O1  1.0  0.6534729280859537  0.28314889249216557  0.4558621371728196  Uiso  ?  O
O1  1.0  0.6921170210547638  0.28120503784165085  0.45480091131527495  Uiso  ?  O
O1  1.0  0.6568938700522722  0.24664559211487463  0.41749052627670535  Uiso  ?  O
O1  1.0  0.6919834784217695  0.24471762854874424  0.41970219402545716  Uiso  ?  O
O1  1.0  0.6556643028262004  0.2850305832073  0.41795848867161345  Uiso  ?  O
O1  1.0  0.6898818353213876  0.2832703537026812  0.4202771165635611  Uiso  ?  O
Ce1  1.0  0.637549240245082  0.2264038916457263  0.39943749858984656  Uiso  ?  Ce
Ce1  1.0  0.6361245015877618  0.26696844076496495  0.3636462628423431  Uiso  ?  Ce
Ce1  1.0  0.6750539701900695  0.22889088239895025  0.3636518268200767  Uiso  ?  Ce
Ce1  1.0  0.6750472785335125  0.2665903848534508  0.3993428667805795  Uiso  ?  Ce
O1  1.0  0.6561461847395816  0.24422275594048484  0.38188028830708964  Uiso  ?  O
O1  1.0  0.6924774794877209  0.24710299980056202  0.3824363329847096  Uiso  ?  O
O1  1.0  0.6559768700515748  0.28277467960250785  0.38530645267042524  Uiso  ?  O
O1  1.0  0.6923243942138848  0.2832783293288062  0.38214316183404884  Uiso  ?  O
O1  1.0  0.6577730533138274  0.24839666550432626  0.3477979942253952  Uiso  ?  O
O1  1.0  0.6945747227125303  0.24580418419007738  0.3448296425067148  Uiso  ?  O
O1  1.0  0.6548863431063292  0.28329498660429475  0.3450395879860107  Uiso  ?  O
O1  1.0  0.6925854116142083  0.2834370302434692  0.34691053406377365  Uiso  ?  O
Ce1  1.0  0.6405213164279197  0.22839225389885875  0.3255441243433096  Uiso  ?  Ce
Ce1  1.0  0.6388354188743729  0.2653827183596268  0.2890273896354993  Uiso  ?  Ce
Ce1  1.0  0.6773002418588377  0.22792909723922905  0.2904645575153708  Uiso  ?  Ce
Ce1  1.0  0.6743036021086709  0.2668941600127007  0.32751592766699517  Uiso  ?  Ce
O1  1.0  0.6592019428943088  0.24674224913108053  0.3089699676416299  Uiso  ?  O
O1  1.0  0.6938903020293922  0.24371802522427793  0.3084872997869549  Uiso  ?  O
O1  1.0  0.656015006448111  0.28280209247389665  0.30675905225636585  Uiso  ?  O
O1  1.0  0.6568162029050865  0.2453360275978446  0.2717626147811545  Uiso  ?  O
Ce1  1.0  0.6374989646161509  0.22595788118961793  0.25143659968350335  Uiso  ?  Ce
Ce1  1.0  0.7122917667314345  0.2644392781089156  0.8061328123096244  Uiso  ?  Ce
Ce1  1.0  0.7498506532170329  0.22804947027776404  0.8094435951426282  Uiso  ?  Ce
O1  1.0  0.7314588426081421  0.24568754623937994  0.8235725020806052  Uiso  ?  O
O1  1.0  0.7655706938311707  0.24747460929188256  0.8249361161036682  Uiso  ?  O
O1  1.0  0.7273532032385394  0.2821195368445952  0.8277072684980953  Uiso  ?  O
O1  1.0  0.7666543983958416  0.28382357036964817  0.827274880271967  Uiso  ?  O
O1  1.0  0.7296008656206306  0.24554890941017077  0.7894525470666438  Uiso  ?  O
O1  1.0  0.7686875437656151  0.24685000383145328  0.7871701661111362  Uiso  ?  O
O1  1.0  0.7286508516887231  0.28463345440615534  0.7885389547746274  Uiso  ?  O
O1  1.0  0.7677417083112958  0.28697276361557694  0.7895529381866331  Uiso  ?  O
Ce1  1.0  0.7124171414388247  0.22988258828733907  0.7725037888606892  Uiso  ?  Ce
Ce1  1.0  0.7106215535923069  0.26593205462851793  0.7364469322501571  Uiso  ?  Ce
Ce1  1.0  0.7500688060277907  0.22924063335404293  0.7362820030637148  Uiso  ?  Ce
Ce1  1.0  0.7491212147520563  0.2626154718148992  0.7706194037294567  Uiso  ?  Ce
O1  1.0  0.7312887660977921  0.24518048471610082  0.7519726330219613  Uiso  ?  O
O1  1.0  0.7660784032836765  0.24638660834329942  0.7520108472122332  Uiso  ?  O
O1  1.0  0.729221125557946  0.28391281445305355  0.7558923337745965  Uiso  ?  O
O1  1.0  0.7675519905926916  0.2841320196117046  0.7481553391337846  Uiso  ?  O
O1  1.0  0.7297616346202774  0.24701760628405126  0.715976713933789  Uiso  ?  O
O1  1.0  0.765626901663104  0.24381062929709732  0.7160084146424001  Uiso  ?  O
O1  1.0  0.7292449188398004  0.2835877356227744  0.7149988311806652  Uiso  ?  O
O1  1.0  0.7656584026886871  0.28423281704376263  0.7147229313422067  Uiso  ?  O
Ce1  1.0  0.713170409891548  0.22835250418997763  0.6994403314799038  Uiso  ?  Ce
Ce1  1.0  0.7079958525553757  0.26433061026249477  0.6605236231267925  Uiso  ?  Ce
Ce1  1.0  0.7486302343730393  0.22636058410998555  0.6596940849209832  Uiso  ?  Ce
Ce1  1.0  0.7482632146301177  0.2649901413390096  0.6935826674947564  Uiso  ?  Ce
O1  1.0  0.7300018423578679  0.24503545436487947  0.6792410986518745  Uiso  ?  O
O1  1.0  0.7675543232402184  0.24637286422719143  0.6807850295441452  Uiso  ?  O
O1  1.0  0.7286121995546313  0.28384002638735994  0.6799822550252643  Uiso  ?  O
O1  1.0  0.7676036557975675  0.2824972268687546  0.6791010528039292  Uiso  ?  O
O1  1.0  0.7310219461815451  0.24532397852143523  0.6408953441197077  Uiso  ?  O
O1  1.0  0.7683794015941516  0.24581276503421498  0.6421516711645072  Uiso  ?  O
O1  1.0  0.7302850731074363  0.2803047851164172  0.6399460132555439  Uiso  ?  O
O1  1.0  0.7656452971395619  0.2840821727236735  0.6419094106944532  Uiso  ?  O
Ce1  1.0  0.7128533382830873  0.2257044080236337  0.6226165234652543  Uiso  ?  Ce
Ce1  1.0  0.7116468443342102  0.26643579104816756  0.5836600029707821  Uiso  ?  Ce
Ce1  1.0  0.7470385440897835  0.22388779518786728  0.5871754053101401  Uiso  ?  Ce
Ce1  1.0  0.7497492421074963  0.26534952950022705  0.6258206832697053  Uiso  ?  Ce
O1  1.0  0.7293806741186208  0.24776451347886339  0.6037176153097163  Uiso  ?  O
O1  1.0  0.767870007293146  0.24720965937617548  0.6035723581030077  Uiso  ?  O
O1  1.0  0.7311478451877457  0.2821089298212757  0.6047632961454688  Uiso  ?  O
O1  1.0  0.7692436716893336  0.28275340421554496  0.604484841945108  Uiso  ?  O
O1  1.0  0.7339073649005667  0.24514965630334948  0.5683804387941447  Uiso  ?  O
O1  1.0  0.7663141072644524  0.2441113818741844  0.5688062114576432  Uiso  ?  O
O1  1.0  0.7302364761913839  0.28335756706203097  0.5683770909152457  Uiso  ?  O
O1  1.0  0.7675933509044341  0.28165082463431174  0.5685815788960031  Uiso  ?  O
Ce1  1.0  0.7115898799673889  0.22532860244117284  0.5486878164942491  Uiso  ?  Ce
Ce1  1.0  0.7121040683137015  0.2657340760643483  0.5134969607822181  Uiso  ?  Ce
Ce1  1.0  0.7473239096836499  0.22722270660383842  0.5117069599609803  Uiso  ?  Ce
Ce1  1.0  0.749063152155391  0.2668283750108328  0.5504384644330168  Uiso  ?  Ce
O1  1.0  0.7330063142426714  0.24673750798052008  0.5295007317744763  Uiso  ?  O
O1  1.0  0.767603417301546  0.24463579482921666  0.5290919307751747  Uiso  ?  O
O1  1.0  0.7293427337979767  0.2861104739042822  0.529412032808447  Uiso  ?  O
O1  1.0  0.7677273798945977  0.2848738644623502  0.5303438631222398  Uiso  ?  O
O1  1.0  0.7316162122609484  0.24518835064217973  0.49257048509184315  Uiso  ?  O
O1  1.0  0.7681374001173474  0.24868324348261  0.49486262086868565  Uiso  ?  O
O1  1.0  0.7295236276036776  0.2835128667148902  0.4944958183976466  Uiso  ?  O
O1  1.0  0.7658100159741755  0.2832528998041017  0.49491278376185  Uiso  ?  O
Ce1  1.0  0.7136503403892418  0.22793182508320853  0.4764370804502676  Uiso  ?  Ce
Ce1  1.0  0.7135530368785752  0.2653680411852412  0.43719276700316473  Uiso  ?  Ce
Ce1  1.0  0.7477905292206981  0.2277932354258084  0.4380590148591117  Uiso  ?  Ce
Ce1  1.0  0.7494639308827187  0.26409790810305034  0.47767200427002343  Uiso  ?  Ce
O1  1.0  0.7318746732737914  0.24600655805007265  0.4579382911429527  Uiso  ?  O
O1  1.0  0.7664511234908247  0.24673772424622445  0.4542767277393554  Uiso  ?  O
O1  1.0  0.729539005834554  0.2821739588418471  0.45672256528780664  Uiso  ?  O
O1  1.0  0.7663420384333228  0.2834795228656604  0.45547474958886763  Uiso  ?  O
O1  1.0  0.7301845143586422  0.24670983468770485  0.418439487975624  Uiso  ?  O
O1  1.0  0.7680810941761528  0.24801715843644329  0.4189519707495145  Uiso  ?  O
O1  1.0  0.7300330884975106  0.2841205925156641  0.4203062199691523  Uiso  ?  O
O1  1.0  0.7660032530393871  0.2850530649722611  0.4165817227133963  Uiso  ?  O
Ce1  1.0  0.7129359650540551  0.22705429033050334  0.3992802610439457  Uiso  ?  Ce
Ce1  1.0  0.7121793931931137  0.2654664322936948  0.3630719527303522  Uiso  ?  Ce
Ce1  1.0  0.7496124602995932  0.2277143848922334  0.36443775102549175  Uiso  ?  Ce
Ce1  1.0  0.7487210598077255  0.26646872926122267  0.40201417442423915  Uiso  ?  Ce
O1  1.0  0.7310091823084341  0.24571189285367434  0.3835834434069102  Uiso  ?  O
O1  1.0  0.7652236981032755  0.24769257203503556  0.3817255430165349  Uiso  ?  O
O1  1.0  0.7321989928485715  0.282643999142825  0.3808067853468705  Uiso  ?  O
O1  1.0  0.7317362157497863  0.24584643947787335  0.3467636191430004  Uiso  ?  O
Ce1  1.0  0.7132408319428925  0.22671290763841923  0.32519754240072235  Uiso  ?  Ce
Ce1  1.0  0.15636351659958364  0.152577000646324  0.8081704605599732  Uiso  ?  Ce
O1  1.0  0.13906979670903766  0.17292134737123585  0.8270904559314863  Uiso  ?  O
O1  1.0  0.17292106753403563  0.1746519460409819  0.8266956949050591  Uiso  ?  O
O1  1.0  0.1722144087032903  0.20904857938525584  0.8280472990665203  Uiso  ?  O
O1  1.0  0.17347521696214793  0.1728956001209279  0.7902370215518142  Uiso  ?  O
O1  1.0  0.17335548809307688  0.21152608806224585  0.7911230961770909  Uiso  ?  O
Ce1  1.0  0.15612652963924892  0.15429255503137446  0.7362505608317231  Uiso  ?  Ce
Ce1  1.0  0.15385096661852551  0.18865692707762705  0.7688554619133546  Uiso  ?  Ce
O1  1.0  0.173654542563683  0.17588327155686712  0.7523322540018598  Uiso  ?  O
O1  1.0  0.1740214225983032  0.20957088635757817  0.7535061409549996  Uiso  ?  O
O1  1.0  0.1381553733677088  0.1743385577490138  0.7162313933560608  Uiso  ?  O
O1  1.0  0.17564141537245204  0.17269597954864235  0.7170816289875037  Uiso  ?  O
O1  1.0  0.13761893785803841  0.2096280402082556  0.7160726759202447  Uiso  ?  O
O1  1.0  0.17296825347702005  0.2087196301417739  0.7166191511498871  Uiso  ?  O
Ce1  1.0  0.1557032495205244  0.15205710977297207  0.6609678687862773  Uiso  ?  Ce
Ce1  1.0  0.15345437570608964  0.19082202457223846  0.6965125889161125  Uiso  ?  Ce
O1  1.0  0.1384405234479968  0.17336181251763447  0.6793301239533635  Uiso  ?  O
O1  1.0  0.1715868340010873  0.17184501659057175  0.6784577535366926  Uiso  ?  O
O1  1.0  0.1371347628327917  0.20915788332996213  0.6802623478271431  Uiso  ?  O
O1  1.0  0.17554999504995758  0.20974224185935172  0.6793914100726279  Uiso  ?  O
O1  1.0  0.13767501862002002  0.1706502414036373  0.6440982409497091  Uiso  ?  O
O1  1.0  0.1732453912155963  0.1744629137472581  0.6425787985944464  Uiso  ?  O
O1  1.0  0.13747185366938477  0.20901634457134433  0.640787000658079  Uiso  ?  O
O1  1.0  0.17449778058912868  0.21217405605891865  0.6412323427799934  Uiso  ?  O
Ce1  1.0  0.15593113974045386  0.15492515441524998  0.5850167903865877  Uiso  ?  Ce
Ce1  1.0  0.15578312117288617  0.1913057650333405  0.625058427883028  Uiso  ?  Ce
O1  1.0  0.13764426163991894  0.17286260167197806  0.6041136924468625  Uiso  ?  O
O1  1.0  0.1733484851306235  0.16953656720779137  0.6048843543859798  Uiso  ?  O
O1  1.0  0.1371895947829492  0.21012045183873548  0.6069978024651507  Uiso  ?  O
O1  1.0  0.1735368702583359  0.20869686537497287  0.6044219752200707  Uiso  ?  O
O1  1.0  0.13877473558334757  0.1705228417647489  0.5677973202668821  Uiso  ?  O
O1  1.0  0.1769346003035418  0.17377055260074178  0.5661692434476189  Uiso  ?  O
O1  1.0  0.13816767736142727  0.20831439838903237  0.566967019712545  Uiso  ?  O
O1  1.0  0.17235572968768736  0.20862655892654736  0.5660700572542872  Uiso  ?  O
Ce1  1.0  0.15614999351334863  0.15416973121675587  0.5117762805710134  Uiso  ?  Ce
Ce1  1.0  0.15523205075568633  0.19074506297187482  0.5471326972023928  Uiso  ?  Ce
O1  1.0  0.17282014689257366  0.17130534450657856  0.530995142816548  Uiso  ?  O
O1  1.0  0.13804816038163964  0.20704431650614744  0.5311160341057739  Uiso  ?  O
O1  1.0  0.1745049809678817  0.2092297184778806  0.5297101012842602  Uiso  ?  O
O1  1.0  0.1370865297305298  0.17173381841310523  0.4928371424294577  Uiso  ?  O
O1  1.0  0.1736624358994128  0.17191839000065523  0.49487706925360603  Uiso  ?  O
O1  1.0  0.13757753475589868  0.21067789775934181  0.4933785684736789  Uiso  ?  O
O1  1.0  0.17327588725421933  0.20778315994569965  0.4925389591726185  Uiso  ?  O
Ce1  1.0  0.1567903149232699  0.15283811594354446  0.43794012459663606  Uiso  ?  Ce
Ce1  1.0  0.1564782890000995  0.19216242822673207  0.47418140739071984  Uiso  ?  Ce
O1  1.0  0.13922916220577902  0.17171261740777694  0.4574617512549797  Uiso  ?  O
O1  1.0  0.17555303289333085  0.17186362144784031  0.45622126411562774  Uiso  ?  O
O1  1.0  0.1748690119647886  0.21090100518457497  0.455241823230937  Uiso  ?  O
O1  1.0  0.13866175001984526  0.17508470872383688  0.4202256918414377  Uiso  ?  O
O1  1.0  0.1736170421452059  0.17049156960233308  0.4200600674153498  Uiso  ?  O
O1  1.0  0.1374122914128379  0.20859347321560953  0.4192269717447192  Uiso  ?  O
O1  1.0  0.17379162445825505  0.20819774509201328  0.4199531410919007  Uiso  ?  O
Ce1  1.0  0.15649618132959497  0.15330050062087117  0.36256662537751294  Uiso  ?  Ce
Ce1  1.0  0.15492978305087282  0.18835344518913139  0.40195316177812884  Uiso  ?  Ce
O1  1.0  0.17348735666146456  0.171763899978514  0.3817382394698881  Uiso  ?  O
O1  1.0  0.1390621664649315  0.20797257766275024  0.38060578244063215  Uiso  ?  O
O1  1.0  0.1747470249507262  0.20993115517904096  0.38210448374360767  Uiso  ?  O
O1  1.0  0.1371380129954142  0.17192555097910475  0.3475618148511167  Uiso  ?  O
O1  1.0  0.17466069695072436  0.17081016461480136  0.3447231846060018  Uiso  ?  O
O1  1.0  0.1393435019321425  0.21004994121206624  0.34658719003901733  Uiso  ?  O
O1  1.0  0.17442749248482753  0.20883863356077367  0.3475468539709915  Uiso  ?  O
Ce1  1.0  0.15492850497503588  0.15393833286877232  0.2897857042356406  Uiso  ?  Ce
Ce1  1.0  0.15648876811241405  0.19177329059351542  0.32742822085429957  Uiso  ?  Ce
O1  1.0  0.13852340971850358  0.17233664466520232  0.30793735785310866  Uiso  ?  O
O1  1.0  0.1714466674222488  0.1734927499898014  0.30874370099469367  Uiso  ?  O
O1  1.0  0.17417743330501914  0.20785841283144532  0.30871067405671737  Uiso  ?  O
O1  1.0  0.17372271560323047  0.17160162520848035  0.2725682369680986  Uiso  ?  O
O1  1.0  0.17396202806249772  0.20766097629148  0.2717283482466418  Uiso  ?  O
Ce1  1.0  0.15637520567778945  0.15089239234378152  0.21534097549798376  Uiso  ?  Ce
Ce1  1.0  0.1563627264499304  0.19165910401886693  0.2529208372400833  Uiso  ?  Ce
O1  1.0  0.13814651837216832  0.17266015003434246  0.23505032250137892  Uiso  ?  O
O1  1.0  0.17514501217473608  0.17251225540424978  0.2322858785444367  Uiso  ?  O
O1  1.0  0.1754459430808501  0.20957218275369255  0.23641472106519426  Uiso  ?  O
O1  1.0  0.1731721898191175  0.1741661534288923  0.19492270476323  Uiso  ?  O
O1  1.0  0.13840546533539538  0.20761212416505592  0.1966614397577429  Uiso  ?  O
O1  1.0  0.17405894970775423  0.20910863805007768  0.19672711607627696  Uiso  ?  O
Ce1  1.0  0.15462285918722307  0.1910191449641263  0.17895632756792065  Uiso  ?  Ce
Ce1  1.0  0.19189532380687374  0.18868670805299806  0.8086569484574269  Uiso  ?  Ce
Ce1  1.0  0.23062661558319147  0.15153806163026673  0.8088280412798179  Uiso  ?  Ce
O1  1.0  0.211174711771899  0.17406869758542373  0.8278105126747649  Uiso  ?  O
O1  1.0  0.2489022042059903  0.1708440764099835  0.8266793811962279  Uiso  ?  O
O1  1.0  0.20946312491315525  0.21024187074769377  0.8281963377832415  Uiso  ?  O
O1  1.0  0.2469035567242432  0.20878290296042737  0.8294082878794236  Uiso  ?  O
O1  1.0  0.2102639269034777  0.17090504855637076  0.7891588272742035  Uiso  ?  O
O1  1.0  0.24920189873541343  0.17325090465899404  0.7922182216246366  Uiso  ?  O
O1  1.0  0.2111046851314883  0.20899751421734294  0.7896336849877507  Uiso  ?  O
O1  1.0  0.2505953303569271  0.2078610284631857  0.7887185558346872  Uiso  ?  O
Ce1  1.0  0.19371297788571024  0.15434460058797106  0.7734365625713437  Uiso  ?  Ce
Ce1  1.0  0.19183291723772455  0.19064947955138492  0.7338151028138596  Uiso  ?  Ce
Ce1  1.0  0.2309450697941291  0.1533885375321874  0.7362220618704904  Uiso  ?  Ce
Ce1  1.0  0.23262304144941046  0.19088923227596552  0.7704282469244682  Uiso  ?  Ce
O1  1.0  0.2121439581754851  0.17393967389075682  0.7526129159118321  Uiso  ?  O
O1  1.0  0.24787869295362902  0.17107961814064582  0.7526926786984851  Uiso  ?  O
O1  1.0  0.21055932035484745  0.21060824940667167  0.7528463087160816  Uiso  ?  O
O1  1.0  0.24806776982532577  0.20964493182184676  0.7509703428437148  Uiso  ?  O
O1  1.0  0.21151610047685912  0.17103435230114178  0.7177744864255184  Uiso  ?  O
O1  1.0  0.25027581787234093  0.17341211734659182  0.7149477354086511  Uiso  ?  O
O1  1.0  0.21117549287656975  0.20806348696272553  0.7166390861567549  Uiso  ?  O
O1  1.0  0.24697696393179266  0.207455627272366  0.7142213861394395  Uiso  ?  O
Ce1  1.0  0.1933044278553774  0.1549414157227171  0.6973996089839812  Uiso  ?  Ce
Ce1  1.0  0.1916876118416446  0.18838773438339027  0.6591487039370763  Uiso  ?  Ce
Ce1  1.0  0.23005856175047612  0.15415177049310796  0.659121719656265  Uiso  ?  Ce
Ce1  1.0  0.23074641563448842  0.18789039182212308  0.6963234873780987  Uiso  ?  Ce
O1  1.0  0.20934955690958135  0.17341824514912596  0.6759168263802731  Uiso  ?  O
O1  1.0  0.248050443675421  0.17196165287142762  0.6786500073002638  Uiso  ?  O
O1  1.0  0.21030930020820265  0.20881388086577152  0.6791781901925286  Uiso  ?  O
O1  1.0  0.24731287341439984  0.20749666448864076  0.6780336230721603  Uiso  ?  O
O1  1.0  0.21023360050828177  0.17315255348930644  0.640817616364251  Uiso  ?  O
O1  1.0  0.2481193823225045  0.17467582040280605  0.6427097058848467  Uiso  ?  O
O1  1.0  0.2121927908621747  0.20969214608401754  0.6409579215952637  Uiso  ?  O
O1  1.0  0.24761084829447724  0.20964645872144438  0.642805627198274  Uiso  ?  O
Ce1  1.0  0.19344266436179872  0.15314916187505082  0.6219472501154718  Uiso  ?  Ce
Ce1  1.0  0.19188990076994183  0.1884363042974113  0.5847290878629191  Uiso  ?  Ce
Ce1  1.0  0.22853440138049488  0.1547169626870277  0.5848121041237139  Uiso  ?  Ce
Ce1  1.0  0.2323533770185145  0.1923806369360127  0.6220128398085868  Uiso  ?  Ce
O1  1.0  0.21268989308935016  0.17569793116618296  0.6049637900825706  Uiso  ?  O
O1  1.0  0.24884077588871334  0.1708425274878587  0.6044515247891903  Uiso  ?  O
O1  1.0  0.2111363708785881  0.20833219617244125  0.603062826830798  Uiso  ?  O
O1  1.0  0.251874489897931  0.20990360268614516  0.6030281218682259  Uiso  ?  O
O1  1.0  0.21059221453836888  0.1719860788231546  0.5673951475023671  Uiso  ?  O
O1  1.0  0.2488766909512612  0.17223252854995427  0.5682738571794941  Uiso  ?  O
O1  1.0  0.20917478483188606  0.2092429685152949  0.5671721935268622  Uiso  ?  O
O1  1.0  0.24937260832080724  0.20867885783493229  0.5678762619725554  Uiso  ?  O
Ce1  1.0  0.1915610197074368  0.1539905852103254  0.5485133802718466  Uiso  ?  Ce
Ce1  1.0  0.19308123171077637  0.19051802284108202  0.5119992435032787  Uiso  ?  Ce
Ce1  1.0  0.22885746468427204  0.15283540781991398  0.5135726549519508  Uiso  ?  Ce
Ce1  1.0  0.22895107348784796  0.19006695499195067  0.5504369674584626  Uiso  ?  Ce
O1  1.0  0.20984013730459358  0.17125550466789496  0.5304819812565389  Uiso  ?  O
O1  1.0  0.24763892482810546  0.1725481826740644  0.5301207729323743  Uiso  ?  O
O1  1.0  0.21235214060018906  0.20929058944876358  0.5305378190784453  Uiso  ?  O
O1  1.0  0.24938633052250442  0.21012233123693075  0.5300907202845151  Uiso  ?  O
O1  1.0  0.20891730747594392  0.17424593699994131  0.4953006311870498  Uiso  ?  O
O1  1.0  0.2472742151190804  0.17021727950901547  0.4939165381083414  Uiso  ?  O
O1  1.0  0.20915617023176183  0.20806547586950874  0.49357918724248123  Uiso  ?  O
O1  1.0  0.24657032129120085  0.2123624922610415  0.49406216343333625  Uiso  ?  O
Ce1  1.0  0.19401447838054087  0.15198179443219825  0.472704548539775  Uiso  ?  Ce
Ce1  1.0  0.19012422029232165  0.19037910313988718  0.43690648489796613  Uiso  ?  Ce
Ce1  1.0  0.23024906530990394  0.1540460288035252  0.43739005744558407  Uiso  ?  Ce
Ce1  1.0  0.2298856284212112  0.19136593889347486  0.47400767214399986  Uiso  ?  Ce
O1  1.0  0.2113230091606778  0.17136256104741623  0.4572854525834337  Uiso  ?  O
O1  1.0  0.24946701014151756  0.17170399425973734  0.454963642529363  Uiso  ?  O
O1  1.0  0.21182844421241712  0.2058853858180559  0.45365778492991066  Uiso  ?  O
O1  1.0  0.24853014207748292  0.20798683001240825  0.4567923036767506  Uiso  ?  O
O1  1.0  0.2090493785740154  0.17101392673602567  0.41921529991775763  Uiso  ?  O
O1  1.0  0.2479796338894322  0.17295417237130453  0.41972069493616193  Uiso  ?  O
O1  1.0  0.2113173813434763  0.21025556357713995  0.41806955485944086  Uiso  ?  O
O1  1.0  0.25003294954843114  0.2103302965311156  0.42041846322019105  Uiso  ?  O
Ce1  1.0  0.1910407379294616  0.1530982909795308  0.4015988674875984  Uiso  ?  Ce
Ce1  1.0  0.19273889271498032  0.19265488316735332  0.36206924576762406  Uiso  ?  Ce
Ce1  1.0  0.22887783160167638  0.15296193974493924  0.3622762943643162  Uiso  ?  Ce
Ce1  1.0  0.2298897599357561  0.19092010504452644  0.40142623698713015  Uiso  ?  Ce
O1  1.0  0.21218613243820852  0.1757912828015782  0.3809389652823744  Uiso  ?  O
O1  1.0  0.247962737874539  0.1717506079178434  0.38341046935768697  Uiso  ?  O
O1  1.0  0.21228784460803024  0.2078449433302833  0.3820667674531265  Uiso  ?  O
O1  1.0  0.24796951730636055  0.2119578578699056  0.3814568444508628  Uiso  ?  O
O1  1.0  0.21278234505083998  0.1743532878827223  0.3462056538513188  Uiso  ?  O
O1  1.0  0.24938611460431034  0.17281992161716137  0.34655344439604663  Uiso  ?  O
O1  1.0  0.21266006987629854  0.20925452150151838  0.3465305096906489  Uiso  ?  O
O1  1.0  0.248929831089614  0.20965668452064076  0.3449491613219667  Uiso  ?  O
Ce1  1.0  0.19359152006220892  0.153189047318286  0.3279343996454074  Uiso  ?  Ce
Ce1  1.0  0.19205191443939323  0.1913833531760263  0.28893223777235594  Uiso  ?  Ce
Ce1  1.0  0.22871147353058832  0.1556492265787672  0.2874852308629535  Uiso  ?  Ce
Ce1  1.0  0.23080607197773043  0.19150214837938312  0.325472863277727  Uiso  ?  Ce
O1  1.0  0.21013442308123673  0.1721829100411631  0.3087318892488033  Uiso  ?  O
O1  1.0  0.2464286584884911  0.1713841336036903  0.3023578637154968  Uiso  ?  O
O1  1.0  0.2119819289898347  0.21003101716422679  0.3100862355113016  Uiso  ?  O
O1  1.0  0.24774770036505464  0.2077531795169736  0.304211844979611  Uiso  ?  O
O1  1.0  0.21046298857032691  0.17225361981448506  0.26895510335229317  Uiso  ?  O
O1  1.0  0.24958375257951593  0.1710444395947706  0.26924152706650767  Uiso  ?  O
O1  1.0  0.21167639596651955  0.20829631203310586  0.27121128794465815  Uiso  ?  O
O1  1.0  0.24898490551437855  0.20978402132115023  0.2713302836642644  Uiso  ?  O
Ce1  1.0  0.19159222441143225  0.15372887856370598  0.2543667319098448  Uiso  ?  Ce
Ce1  1.0  0.19191418047856887  0.191465290278897  0.21297206390340323  Uiso  ?  Ce
Ce1  1.0  0.23080657914894545  0.15522673974309792  0.21535701133211177  Uiso  ?  Ce
Ce1  1.0  0.22743756843052432  0.19127029529777984  0.25482179108463904  Uiso  ?  Ce
O1  1.0  0.20993898731176183  0.17020135280815676  0.2350124406019552  Uiso  ?  O
O1  1.0  0.24584755630011548  0.1724428463341081  0.2340404055441206  Uiso  ?  O
O1  1.0  0.21049011815410154  0.2079449171543349  0.23299097370267136  Uiso  ?  O
O1  1.0  0.2491378450678076  0.2071985935474677  0.23502785134315862  Uiso  ?  O
O1  1.0  0.2107636817472609  0.17352759780583604  0.19742272842212635  Uiso  ?  O
O1  1.0  0.24555840420669267  0.1726747757253499  0.19665824247030134  Uiso  ?  O
O1  1.0  0.21278547283602084  0.20648679418418894  0.19558969486230343  Uiso  ?  O
O1  1.0  0.2477198198437159  0.20878194132862318  0.19748902512818317  Uiso  ?  O
Ce1  1.0  0.19045141563345128  0.1527251100398909  0.17956264848513506  Uiso  ?  Ce
Ce1  1.0  0.22973876163834112  0.19006069200668632  0.17762755021189724  Uiso  ?  Ce
Ce1  1.0  0.2662750969718299  0.1908934513566439  0.8074427545891968  Uiso  ?  Ce
Ce1  1.0  0.304110490280083  0.15228581656880394  0.8067977374439661  Uiso  ?  Ce
O1  1.0  0.2841062267501086  0.17221482847694247  0.8277302961677374  Uiso  ?  O
O1  1.0  0.3219367807821573  0.17243061434961837  0.8284443955992301  Uiso  ?  O
O1  1.0  0.28379294553003626  0.20910553648538382  0.827579604825835  Uiso  ?  O
O1  1.0  0.32408901837311643  0.20710557186998257  0.825238337726132  Uiso  ?  O
O1  1.0  0.286243364082633  0.1730674880829062  0.7899327897052381  Uiso  ?  O
O1  1.0  0.322707487653631  0.17177358216646793  0.7890078849532336  Uiso  ?  O
O1  1.0  0.28415126492773657  0.2090642925299805  0.7893552734535493  Uiso  ?  O
O1  1.0  0.3224547470682982  0.20913754799722648  0.7901159256126732  Uiso  ?  O
Ce1  1.0  0.2661537524425417  0.15286355317659306  0.769989426669859  Uiso  ?  Ce
Ce1  1.0  0.2633222268611178  0.19239784564765286  0.7354202138335858  Uiso  ?  Ce
Ce1  1.0  0.306070362646212  0.1549436972750879  0.734409787769959  Uiso  ?  Ce
Ce1  1.0  0.302023435430073  0.18979473876413364  0.7694043561522221  Uiso  ?  Ce
O1  1.0  0.2870987196713371  0.17300516035541438  0.7519667440738582  Uiso  ?  O
O1  1.0  0.321924768512294  0.1698987654838719  0.751969900316305  Uiso  ?  O
O1  1.0  0.2866731263480869  0.20885693376009482  0.7523756569639592  Uiso  ?  O
O1  1.0  0.32299865210179024  0.2088836049421103  0.7518766699615311  Uiso  ?  O
O1  1.0  0.28586900991450664  0.17315978117345787  0.7153657796028551  Uiso  ?  O
O1  1.0  0.3227042244612421  0.17330549525965938  0.7160905713731133  Uiso  ?  O
O1  1.0  0.28461836291402526  0.20747034276783483  0.7162340583153177  Uiso  ?  O
O1  1.0  0.3230445468258477  0.20990945908054082  0.7169289231954331  Uiso  ?  O
Ce1  1.0  0.26903290020085924  0.1522033618869945  0.6972873785837236  Uiso  ?  Ce
Ce1  1.0  0.26704566028871907  0.19081216659776565  0.66117667559232  Uiso  ?  Ce
Ce1  1.0  0.3041116374634643  0.1555947453744028  0.6598485002473657  Uiso  ?  Ce
Ce1  1.0  0.3045094922325266  0.19115036964874232  0.697772236627003  Uiso  ?  Ce
O1  1.0  0.28616359930754387  0.17335054872380676  0.6795258559300449  Uiso  ?  O
O1  1.0  0.32401729295737813  0.17100340984743753  0.6790273353639457  Uiso  ?  O
O1  1.0  0.28522802786384016  0.20909977211349276  0.6765389558928252  Uiso  ?  O
O1  1.0  0.32263038007444467  0.20891673550291132  0.6793046647917713  Uiso  ?  O
O1  1.0  0.2851532328376525  0.17265438996727864  0.6408840680240382  Uiso  ?  O
O1  1.0  0.322045386960044  0.1726749215258313  0.6383107656400288  Uiso  ?  O
O1  1.0  0.2855346987317024  0.2117108854958051  0.6415376407154667  Uiso  ?  O
O1  1.0  0.3233569573392382  0.21217783600787424  0.6429406471217719  Uiso  ?  O
Ce1  1.0  0.26788986974147333  0.15516685258442026  0.6233877610976956  Uiso  ?  Ce
Ce1  1.0  0.2666060850592437  0.190841608061764  0.585249690614418  Uiso  ?  Ce
Ce1  1.0  0.305821029065204  0.1540493461999571  0.5834764084703374  Uiso  ?  Ce
Ce1  1.0  0.3050435183303037  0.1904947797803039  0.6228005262489132  Uiso  ?  Ce
O1  1.0  0.2838424839424588  0.170425103382276  0.6063452432334534  Uiso  ?  O
O1  1.0  0.3228239400225304  0.17274399930590426  0.6057499864118665  Uiso  ?  O
O1  1.0  0.286052747150105  0.20742292391296385  0.6044563449241257  Uiso  ?  O
O1  1.0  0.3214785896991129  0.21025940592540912  0.603261574455656  Uiso  ?  O
O1  1.0  0.28504577175502654  0.17211029508238782  0.5668415423089149  Uiso  ?  O
O1  1.0  0.3212448929910845  0.17241078054853332  0.5678067612415908  Uiso  ?  O
O1  1.0  0.2882350673046795  0.21134447547104898  0.5681924439318703  Uiso  ?  O
O1  1.0  0.3236819824532107  0.20960751668824865  0.5673962252998196  Uiso  ?  O
Ce1  1.0  0.2660113251920558  0.1532753172938466  0.5497111607078182  Uiso  ?  Ce
Ce1  1.0  0.26762059650697917  0.19353056800468202  0.5104760545524105  Uiso  ?  Ce
Ce1  1.0  0.3036184099598462  0.15294871679400868  0.5134342948848442  Uiso  ?  Ce
Ce1  1.0  0.3052448070312379  0.18722547080624624  0.5469939402781372  Uiso  ?  Ce
O1  1.0  0.28187700958356404  0.17380295374288146  0.5295003557756593  Uiso  ?  O
O1  1.0  0.32074601698454697  0.17424405470284207  0.5295485177261425  Uiso  ?  O
O1  1.0  0.2857245652436744  0.20852332750065425  0.5324833226283184  Uiso  ?  O
O1  1.0  0.3209658214933895  0.21006369075589718  0.5325532159581852  Uiso  ?  O
O1  1.0  0.28394805434756487  0.17333675718611743  0.49337319816431485  Uiso  ?  O
O1  1.0  0.32068541900057645  0.17192285644488634  0.49207011786496424  Uiso  ?  O
O1  1.0  0.28810059184729586  0.21078550626764445  0.49530100342489775  Uiso  ?  O
O1  1.0  0.3185894544281328  0.21047893280931704  0.49610061315423326  Uiso  ?  O
Ce1  1.0  0.26595958236554096  0.1537703029546389  0.47440313360255437  Uiso  ?  Ce
Ce1  1.0  0.26708891744651786  0.19028707669190104  0.43726589629276497  Uiso  ?  Ce
Ce1  1.0  0.30376615964220927  0.1539549598740876  0.43840898944949097  Uiso  ?  Ce
Ce1  1.0  0.3016656157610868  0.18948629510212323  0.4733470720349706  Uiso  ?  Ce
O1  1.0  0.28691758763235703  0.17267552680923087  0.4554569892055928  Uiso  ?  O
O1  1.0  0.3213744233994149  0.1731899735810099  0.45466290590854025  Uiso  ?  O
O1  1.0  0.2866895872519109  0.2084017724883763  0.4569710929054222  Uiso  ?  O
O1  1.0  0.32310338777119724  0.20776932200457754  0.4563897503476567  Uiso  ?  O
O1  1.0  0.28496476546138944  0.17205809287570165  0.4193909063418131  Uiso  ?  O
O1  1.0  0.3227955284313249  0.17257803077584272  0.41751648922905377  Uiso  ?  O
O1  1.0  0.28484090116161837  0.20930594015014856  0.41966250847089387  Uiso  ?  O
O1  1.0  0.32323810603640246  0.2100875184983115  0.42160080959907936  Uiso  ?  O
Ce1  1.0  0.26547321221214326  0.15392132826159402  0.4048629617204885  Uiso  ?  Ce
Ce1  1.0  0.26787097897198964  0.1909926554265256  0.3641454183066672  Uiso  ?  Ce
Ce1  1.0  0.30339630844651405  0.15301408987925638  0.36352189272754526  Uiso  ?  Ce
Ce1  1.0  0.30388860278960295  0.18936801078767032  0.3995178695703198  Uiso  ?  Ce
O1  1.0  0.28683728146645765  0.1742872759797098  0.38174019804510356  Uiso  ?  O
O1  1.0  0.32275621204305016  0.17264933818963096  0.38152214251071764  Uiso  ?  O
O1  1.0  0.28370015260590703  0.20867656407614874  0.3843576568779688  Uiso  ?  O
O1  1.0  0.3234736641772464  0.21010317794436287  0.38115334216769864  Uiso  ?  O
O1  1.0  0.28632651730724756  0.17226203526321043  0.3448008770069381  Uiso  ?  O
O1  1.0  0.32326787715283634  0.16967219540786319  0.3440914678412141  Uiso  ?  O
O1  1.0  0.2870592956384964  0.2106803524729048  0.34629644866392983  Uiso  ?  O
O1  1.0  0.32352298235511434  0.2077253016782465  0.34222867300537385  Uiso  ?  O
Ce1  1.0  0.26732415165055756  0.1531790489439328  0.3267631182030333  Uiso  ?  Ce
Ce1  1.0  0.2670457331408519  0.18978960191039884  0.28888647975946774  Uiso  ?  Ce
Ce1  1.0  0.3061309069167429  0.15265019712838193  0.28968074083703044  Uiso  ?  Ce
Ce1  1.0  0.30326281274185324  0.19355406018935029  0.328088778859571  Uiso  ?  Ce
O1  1.0  0.2859945983837154  0.1723341406295728  0.3106378741448703  Uiso  ?  O
O1  1.0  0.3201505361564868  0.1724412673813929  0.30857995824906065  Uiso  ?  O
O1  1.0  0.28532424011797464  0.2100890219739963  0.30732885843703533  Uiso  ?  O
O1  1.0  0.32485369303164874  0.20749912369070767  0.30707108483563533  Uiso  ?  O
O1  1.0  0.2865978389466576  0.17357100812448836  0.270217321412294  Uiso  ?  O
O1  1.0  0.32132599392320227  0.17167244557431552  0.2690447933546019  Uiso  ?  O
O1  1.0  0.28524817764863375  0.21063173898484985  0.2705901946608249  Uiso  ?  O
O1  1.0  0.32149885715307425  0.20978006985365513  0.2725527122470651  Uiso  ?  O
Ce1  1.0  0.2664238037909523  0.15260916098428842  0.25376495366703583  Uiso  ?  Ce
Ce1  1.0  0.26668736546734384  0.1920154522617739  0.21418681745562362  Uiso  ?  Ce
Ce1  1.0  0.30417800322309596  0.15406878393405307  0.21593517687347855  Uiso  ?  Ce
Ce1  1.0  0.30503464665681634  0.19102304885994473  0.2509969870600675  Uiso  ?  Ce
O1  1.0  0.286600494894039  0.17258906612231398  0.23468855660547816  Uiso  ?  O
O1  1.0  0.3196601783351858  0.1718441840062956  0.23560293679759464  Uiso  ?  O
O1  1.0  0.28291989367839426  0.2083432343464694  0.234070030347456  Uiso  ?  O
O1  1.0  0.3238369511796975  0.20559106889983267  0.23643681522692891  Uiso  ?  O
O1  1.0  0.28460738102813726  0.17104340969927043  0.19984014672395803  Uiso  ?  O
O1  1.0  0.32260504043101346  0.1708323045230104  0.19498096686760436  Uiso  ?  O
O1  1.0  0.2868855807714908  0.20920174273421585  0.19471259571116395  Uiso  ?  O
O1  1.0  0.32127808955857035  0.20788323233414086  0.19708458978225363  Uiso  ?  O
Ce1  1.0  0.266441091024595  0.15316290089345388  0.17883339560567377  Uiso  ?  Ce
Ce1  1.0  0.3024875760846821  0.1930620154846978  0.177931635000048  Uiso  ?  Ce
Ce1  1.0  0.3407456005683543  0.19211993633905708  0.80729484657244  Uiso  ?  Ce
Ce1  1.0  0.3794135226465579  0.15034933827660057  0.8108287135153712  Uiso  ?  Ce
O1  1.0  0.35921245596803414  0.17346354346650483  0.8265258425918247  Uiso  ?  O
O1  1.0  0.39565705363553905  0.17579752937238022  0.8220735010570813  Uiso  ?  O
O1  1.0  0.3615995393870661  0.2095378021526533  0.8277204552668406  Uiso  ?  O
O1  1.0  0.39679011106344225  0.20810490023095068  0.8280412913488732  Uiso  ?  O
O1  1.0  0.36016492180018883  0.16967159519123226  0.7889372202072517  Uiso  ?  O
O1  1.0  0.39605371607332435  0.17258499181971035  0.7903651810594464  Uiso  ?  O
O1  1.0  0.35901218674525665  0.2110553862541015  0.788320664167586  Uiso  ?  O
O1  1.0  0.3968134196155827  0.20970036876497603  0.7907993623421076  Uiso  ?  O
Ce1  1.0  0.34194911099218694  0.15560377035481707  0.7726439791047065  Uiso  ?  Ce
Ce1  1.0  0.3394097071284623  0.18882395565113475  0.7335753514636789  Uiso  ?  Ce
Ce1  1.0  0.3792985594996135  0.15476434124898805  0.7335940394804853  Uiso  ?  Ce
Ce1  1.0  0.37943483180404947  0.1903864590673155  0.7716464582077309  Uiso  ?  Ce
O1  1.0  0.36164866595656264  0.17366442775380025  0.7546640211534116  Uiso  ?  O
O1  1.0  0.3956613891182804  0.17198677455025205  0.7517934869509947  Uiso  ?  O
O1  1.0  0.35767550619395627  0.2085439115625365  0.7550793193610009  Uiso  ?  O
O1  1.0  0.3966951693244432  0.20628956833859258  0.7545789186218708  Uiso  ?  O
O1  1.0  0.36165187037746177  0.17250656974039175  0.7157067970391628  Uiso  ?  O
O1  1.0  0.3955613855853443  0.17326442243114418  0.7169331879076281  Uiso  ?  O
O1  1.0  0.35826965818657774  0.20993976000612374  0.7168001080441967  Uiso  ?  O
O1  1.0  0.39851524678177785  0.21076389658147834  0.7184694322441059  Uiso  ?  O
Ce1  1.0  0.34321069656215225  0.15537189144387548  0.6986931868489804  Uiso  ?  Ce
Ce1  1.0  0.3426018459967813  0.19072664782669926  0.6629751947710962  Uiso  ?  Ce
Ce1  1.0  0.37652303363708256  0.15383002010772062  0.661901868594893  Uiso  ?  Ce
Ce1  1.0  0.38007007029799533  0.19068334188351854  0.6992519391030357  Uiso  ?  Ce
O1  1.0  0.3583860656362793  0.17401401660970203  0.6795387394181914  Uiso  ?  O
O1  1.0  0.39645936098080276  0.1725515793606512  0.6791177601084821  Uiso  ?  O
O1  1.0  0.3609067457851184  0.21058579195762103  0.6776904151046761  Uiso  ?  O
O1  1.0  0.39614922400546065  0.20982109541576896  0.6767802634163875  Uiso  ?  O
O1  1.0  0.3620591655032401  0.17329000437043737  0.640480587200409  Uiso  ?  O
O1  1.0  0.39771637619627326  0.173837258448783  0.6412825108782274  Uiso  ?  O
O1  1.0  0.35871902361482244  0.21150043837129512  0.6422353765246667  Uiso  ?  O
O1  1.0  0.39547344544221147  0.208580488626689  0.6411183700005632  Uiso  ?  O
Ce1  1.0  0.34022260350740047  0.15116867942409543  0.6229125915549144  Uiso  ?  Ce
Ce1  1.0  0.3411267150302405  0.1877901965727494  0.5860575538488538  Uiso  ?  Ce
Ce1  1.0  0.37845999312009737  0.15417959068550033  0.5845847921487235  Uiso  ?  Ce
Ce1  1.0  0.3767683567632259  0.18977550936393095  0.6224628250168229  Uiso  ?  Ce
O1  1.0  0.35914155796660824  0.1718321991967396  0.6050585143094577  Uiso  ?  O
O1  1.0  0.3958354303387908  0.17225049652705324  0.603429727770402  Uiso  ?  O
O1  1.0  0.36258259189400277  0.21008713118208333  0.6051020531596021  Uiso  ?  O
O1  1.0  0.39441406634741943  0.20757210752650812  0.6058843257833825  Uiso  ?  O
O1  1.0  0.35892800564750205  0.17314516702645116  0.5652840741761321  Uiso  ?  O
O1  1.0  0.39509654781530157  0.17165348151686058  0.5646324705849991  Uiso  ?  O
O1  1.0  0.3613851566930936  0.20697490046987874  0.5687132711357406  Uiso  ?  O
O1  1.0  0.39793631074810637  0.21056330401649662  0.5677489356113654  Uiso  ?  O
Ce1  1.0  0.342122363934696  0.15541750780470193  0.5493804658025684  Uiso  ?  Ce
Ce1  1.0  0.34107676728258784  0.1927306281734738  0.5129647626576468  Uiso  ?  Ce
Ce1  1.0  0.3776797318669565  0.15431152337635445  0.5105370080807629  Uiso  ?  Ce
Ce1  1.0  0.38006729446752957  0.19325192425978918  0.5466994629208312  Uiso  ?  Ce
O1  1.0  0.3593505769471111  0.1717058800770524  0.5311342263681961  Uiso  ?  O
O1  1.0  0.39287251179554933  0.17178890638691863  0.5304064595606199  Uiso  ?  O
O1  1.0  0.3577729397469056  0.21333331548259746  0.5304534616132887  Uiso  ?  O
O1  1.0  0.39288069271831544  0.2092654132651737  0.5310623991060038  Uiso  ?  O
O1  1.0  0.3572868446396025  0.1709673249241906  0.4943610923121931  Uiso  ?  O
O1  1.0  0.3929054387327774  0.1734300335795541  0.49298023005010533  Uiso  ?  O
O1  1.0  0.36068071566341575  0.20741252087260545  0.4923832754051836  Uiso  ?  O
O1  1.0  0.39418687208751135  0.20995431671609388  0.4939166388079888  Uiso  ?  O
Ce1  1.0  0.34231734798763747  0.15444193273917758  0.4745666860669172  Uiso  ?  Ce
Ce1  1.0  0.3376820933910097  0.19179830314857263  0.43907617227887624  Uiso  ?  Ce
Ce1  1.0  0.37669404677222357  0.1544236834668079  0.43805886897402946  Uiso  ?  Ce
Ce1  1.0  0.37722072040965404  0.1894759486415301  0.4763370700306071  Uiso  ?  Ce
O1  1.0  0.36187222710648814  0.17257144771794813  0.4556151565479128  Uiso  ?  O
O1  1.0  0.39711737053477264  0.17635832998541115  0.4561185915236813  Uiso  ?  O
O1  1.0  0.3588677838862863  0.2059688791251895  0.4563459994573787  Uiso  ?  O
O1  1.0  0.3976547332965529  0.20825776570501425  0.45362643943019304  Uiso  ?  O
O1  1.0  0.3602315929090056  0.17299222670016165  0.42008034533307875  Uiso  ?  O
O1  1.0  0.3981236359805827  0.17479436314238886  0.4179341958604094  Uiso  ?  O
O1  1.0  0.3574735990491557  0.20913817129881918  0.4207831805474984  Uiso  ?  O
O1  1.0  0.3965317984831123  0.21160600140338218  0.41933816567883886  Uiso  ?  O
Ce1  1.0  0.34040250639441755  0.15515050383571316  0.4012735818318403  Uiso  ?  Ce
Ce1  1.0  0.3420149272091413  0.19141238417542927  0.3626145698591022  Uiso  ?  Ce
Ce1  1.0  0.37961791506063364  0.15470620246949182  0.3639045953281588  Uiso  ?  Ce
Ce1  1.0  0.37873081206248876  0.18976497160509787  0.3997753537883829  Uiso  ?  Ce
O1  1.0  0.36036053488827163  0.17229659754316648  0.3803892383102114  Uiso  ?  O
O1  1.0  0.39512315273746673  0.17673531715379961  0.38547239329931626  Uiso  ?  O
O1  1.0  0.3614560252627281  0.21052681345531826  0.3808974481276399  Uiso  ?  O
O1  1.0  0.39418438776271986  0.21077026675050614  0.3816779577120043  Uiso  ?  O
O1  1.0  0.3608076384890567  0.17710643590749992  0.34372737165496287  Uiso  ?  O
O1  1.0  0.39703983438123247  0.17116838096992026  0.34555511980454456  Uiso  ?  O
O1  1.0  0.3601840781566  0.20744027281071642  0.3440318995660224  Uiso  ?  O
O1  1.0  0.3976642856171033  0.2096997661569308  0.3446073264611845  Uiso  ?  O
Ce1  1.0  0.33948773451404674  0.1519354235315884  0.3264579016445319  Uiso  ?  Ce
Ce1  1.0  0.3424008477574755  0.19202691513177914  0.2878083330557745  Uiso  ?  Ce
Ce1  1.0  0.3793840323158978  0.15339779634500247  0.2868971656227436  Uiso  ?  Ce
Ce1  1.0  0.37792524980927966  0.18885525231779  0.32483894649945433  Uiso  ?  Ce
O1  1.0  0.360506913656446  0.17472080279880403  0.3072640448580458  Uiso  ?  O
O1  1.0  0.3957538728328538  0.17144747962078058  0.30670029134404075  Uiso  ?  O
O1  1.0  0.3588640275858847  0.20895231489312024  0.30864339567664323  Uiso  ?  O
O1  1.0  0.39565996305168577  0.20788359001225576  0.3059245201401235  Uiso  ?  O
O1  1.0  0.36186702703819973  0.17427356232803873  0.2714636562265732  Uiso  ?  O
O1  1.0  0.39604497138905936  0.1722051872483892  0.27140469507302273  Uiso  ?  O
O1  1.0  0.35753391257857814  0.20951241013763414  0.2709306063456802  Uiso  ?  O
O1  1.0  0.39603882744542307  0.2087057792642857  0.27037548778495485  Uiso  ?  O
Ce1  1.0  0.3414306368356967  0.15113002470815573  0.25408483409712973  Uiso  ?  Ce
Ce1  1.0  0.34210318612669827  0.18938514589618188  0.21507162763652807  Uiso  ?  Ce
Ce1  1.0  0.3788566438766292  0.15218442319170133  0.21487165618482362  Uiso  ?  Ce
Ce1  1.0  0.377033950994484  0.1925890669751981  0.25410368217472956  Uiso  ?  Ce
O1  1.0  0.36197538922079986  0.17081409825233915  0.2324789920784527  Uiso  ?  O
O1  1.0  0.3966001068947335  0.17123200683604933  0.23579025369858617  Uiso  ?  O
O1  1.0  0.35867770245717967  0.20894510828822468  0.2347076046866312  Uiso  ?  O
O1  1.0  0.39575473933079597  0.2095932197699541  0.23526421131133018  Uiso  ?  O
O1  1.0  0.35762210295334385  0.17242909790328592  0.1959440346332179  Uiso  ?  O
O1  1.0  0.39601672260002424  0.1725146464533603  0.19793354705035357  Uiso  ?  O
O1  1.0  0.3584213661841329  0.20859797251165949  0.19552553635750658  Uiso  ?  O
O1  1.0  0.39613879115797673  0.2126612813243164  0.19898731092237845  Uiso  ?  O
Ce1  1.0  0.3419612880220891  0.154235196967158  0.1765715635921673  Uiso  ?  Ce
Ce1  1.0  0.37717039872125924  0.19041314140663163  0.1796543113136416  Uiso  ?  Ce
Ce1  1.0  0.4148247210863714  0.19423855181251234  0.8069160090561851  Uiso  ?  Ce
Ce1  1.0  0.4500638567733535  0.15489567855172096  0.8083187274775518  Uiso  ?  Ce
O1  1.0  0.4331540461271758  0.17259018080079291  0.8274676558970326  Uiso  ?  O
O1  1.0  0.47039047793540656  0.1746445270324693  0.8267420139689963  Uiso  ?  O
O1  1.0  0.4352902139326677  0.21038443883003952  0.8263838726981556  Uiso  ?  O
O1  1.0  0.4704028170869367  0.20802450492784774  0.8280086775831058  Uiso  ?  O
O1  1.0  0.43074735121924584  0.17065806615936718  0.7880229074209399  Uiso  ?  O
O1  1.0  0.47054312181377933  0.1730828299826781  0.7890132932108844  Uiso  ?  O
O1  1.0  0.43430707043971245  0.20849558839191976  0.7895543306548096  Uiso  ?  O
O1  1.0  0.46979633486495537  0.21030607447374394  0.7903109017489095  Uiso  ?  O
Ce1  1.0  0.4149067558443974  0.15330262499033812  0.7705264739772129  Uiso  ?  Ce
Ce1  1.0  0.4141605625853731  0.192345510296312  0.7341673330996655  Uiso  ?  Ce
Ce1  1.0  0.4538076341326258  0.15313686268610463  0.7357467506999245  Uiso  ?  Ce
Ce1  1.0  0.45245649142706795  0.19039867699401694  0.7689380283331163  Uiso  ?  Ce
O1  1.0  0.4345077805562823  0.17081513340261065  0.752050504514437  Uiso  ?  O
O1  1.0  0.4711888184046131  0.1720638857051178  0.7528444511886463  Uiso  ?  O
O1  1.0  0.43395253831696096  0.20958525304833758  0.7549807787787427  Uiso  ?  O
O1  1.0  0.46971267906493214  0.2107941007077561  0.7504792254331241  Uiso  ?  O
O1  1.0  0.43418173508480856  0.17438394169393232  0.7168035846296185  Uiso  ?  O
O1  1.0  0.471635460067178  0.17374344529640426  0.7156420827950826  Uiso  ?  O
O1  1.0  0.4340236621602474  0.207909729844048  0.7160017288863615  Uiso  ?  O
O1  1.0  0.47150965856776456  0.2064898555353535  0.714767496733226  Uiso  ?  O
Ce1  1.0  0.41710585126214766  0.15229855206975268  0.6957983994546543  Uiso  ?  Ce
Ce1  1.0  0.4140916858915238  0.19094040444219132  0.6601472493342344  Uiso  ?  Ce
Ce1  1.0  0.45147898367769973  0.1533952633644391  0.6610765049308218  Uiso  ?  Ce
Ce1  1.0  0.4533184493917472  0.19292465808549478  0.6966133177577536  Uiso  ?  Ce
O1  1.0  0.4345766472856253  0.17408862602610353  0.6788261116205582  Uiso  ?  O
O1  1.0  0.47140761452054375  0.16974757214080932  0.6789205906420388  Uiso  ?  O
O1  1.0  0.43371750780759083  0.20969185166903026  0.6786868843018072  Uiso  ?  O
O1  1.0  0.4718731134976585  0.20929948420893776  0.6780734508396004  Uiso  ?  O
O1  1.0  0.4331249877513325  0.17107711593306493  0.6431243335192951  Uiso  ?  O
O1  1.0  0.4700594238768064  0.17319934732911535  0.640573056403091  Uiso  ?  O
O1  1.0  0.4327070955910857  0.20913957729712976  0.6383508310967694  Uiso  ?  O
O1  1.0  0.4700009724135545  0.20952109983633835  0.6414348407830721  Uiso  ?  O
Ce1  1.0  0.4156542363570612  0.15190803262838776  0.6228112609084493  Uiso  ?  Ce
Ce1  1.0  0.412876656318674  0.18861669403666348  0.5832088093010521  Uiso  ?  Ce
Ce1  1.0  0.4550822902848358  0.15186651836557247  0.5872389697090017  Uiso  ?  Ce
Ce1  1.0  0.4495079866166803  0.19213327521385987  0.6224430932222604  Uiso  ?  Ce
O1  1.0  0.43350673739692314  0.17160621201494447  0.604482394049888  Uiso  ?  O
O1  1.0  0.46849009812795755  0.17221213544951225  0.6022680094826194  Uiso  ?  O
O1  1.0  0.4337993206494839  0.2099075444968374  0.6071361470475064  Uiso  ?  O
O1  1.0  0.47340156375383396  0.2074940461743677  0.6044796699467148  Uiso  ?  O
O1  1.0  0.4347009791426097  0.16941966790439986  0.5650759440512904  Uiso  ?  O
O1  1.0  0.471857863869041  0.17077965099322948  0.566263799859106  Uiso  ?  O
O1  1.0  0.4331105091623447  0.20944660929459882  0.5674307886859813  Uiso  ?  O
O1  1.0  0.47052810702628695  0.21008494723208718  0.5675179258666104  Uiso  ?  O
Ce1  1.0  0.41276756396212744  0.15391480633277424  0.548634111682141  Uiso  ?  Ce
Ce1  1.0  0.41407694762378705  0.19090308187270363  0.5122694481632541  Uiso  ?  Ce
Ce1  1.0  0.4495183874323106  0.15665804210484668  0.5135021465068423  Uiso  ?  Ce
Ce1  1.0  0.45300172832478924  0.19187455517619204  0.5466464367322769  Uiso  ?  Ce
O1  1.0  0.43366728084670153  0.17258322289846473  0.5313292262951077  Uiso  ?  O
O1  1.0  0.47131146351552466  0.17355546415973483  0.5280572213006448  Uiso  ?  O
O1  1.0  0.4329107549718997  0.20965841929798237  0.5301001837783854  Uiso  ?  O
O1  1.0  0.47111784759083863  0.20860830942014946  0.5317674840325157  Uiso  ?  O
O1  1.0  0.4351360362866876  0.17259213537094678  0.4939583442404697  Uiso  ?  O
O1  1.0  0.4702039119019846  0.17346298391199155  0.4916076571498253  Uiso  ?  O
O1  1.0  0.4340268445303284  0.2049309682827572  0.49195310595603065  Uiso  ?  O
O1  1.0  0.4697734797358487  0.20906928857654525  0.4932414169077606  Uiso  ?  O
Ce1  1.0  0.41391879452561925  0.15383722677335582  0.4737190354965503  Uiso  ?  Ce
Ce1  1.0  0.4151483898029689  0.19176952935683128  0.43858697887757137  Uiso  ?  Ce
Ce1  1.0  0.45104375488880405  0.1516108832050682  0.43525662447131336  Uiso  ?  Ce
Ce1  1.0  0.4524458544408443  0.1927531631170492  0.4735248362800416  Uiso  ?  Ce
O1  1.0  0.43555171871592374  0.172459611375406  0.45815532063374764  Uiso  ?  O
O1  1.0  0.4694081111306297  0.17481439406365118  0.4586559228464275  Uiso  ?  O
O1  1.0  0.43450139859843834  0.20671697882038456  0.456367302559809  Uiso  ?  O
O1  1.0  0.47183972911610417  0.2086406440776334  0.4545884801068091  Uiso  ?  O
O1  1.0  0.4313975109335699  0.17512625440036866  0.41910783625070364  Uiso  ?  O
O1  1.0  0.47085079818876835  0.17198791068014382  0.41854367968267575  Uiso  ?  O
O1  1.0  0.4340406299113812  0.20893049840321729  0.4180760160707508  Uiso  ?  O
O1  1.0  0.47074747699376374  0.20954230835877785  0.41628790030605983  Uiso  ?  O
Ce1  1.0  0.4145716913081095  0.15570959639210155  0.4000836593852205  Uiso  ?  Ce
Ce1  1.0  0.41440151656116436  0.18995599607766023  0.3634468515233802  Uiso  ?  Ce
Ce1  1.0  0.4529117089339534  0.154690633599878  0.36419401860262746  Uiso  ?  Ce
Ce1  1.0  0.4542114036669996  0.19397129566853008  0.40113471361486297  Uiso  ?  Ce
O1  1.0  0.435595617859245  0.17296905429545217  0.3821370981602348  Uiso  ?  O
O1  1.0  0.4698000716085287  0.1750665118237002  0.38367230704979427  Uiso  ?  O
O1  1.0  0.43352614301514897  0.21002424332439626  0.38330204136169205  Uiso  ?  O
O1  1.0  0.4722709128423987  0.21158787708078583  0.38338484498949693  Uiso  ?  O
O1  1.0  0.4337227270459926  0.1717456326792726  0.34476275827087594  Uiso  ?  O
O1  1.0  0.47006585587556005  0.1702392404301305  0.34372124905905543  Uiso  ?  O
O1  1.0  0.43192870152204677  0.2081131179876191  0.34443893402635195  Uiso  ?  O
O1  1.0  0.4739539233038851  0.20846881253747615  0.34282768203516667  Uiso  ?  O
Ce1  1.0  0.4142824031666128  0.15374794458178861  0.3257442713785879  Uiso  ?  Ce
Ce1  1.0  0.41478931351283344  0.18833436713139803  0.2889828793157108  Uiso  ?  Ce
Ce1  1.0  0.4490812274304123  0.15389287598113305  0.28822856357729554  Uiso  ?  Ce
Ce1  1.0  0.451878772786785  0.18910438282098482  0.3251690258730744  Uiso  ?  Ce
O1  1.0  0.43338142371085614  0.17114008019753627  0.3077541015651659  Uiso  ?  O
O1  1.0  0.4703473311310077  0.17010887304747682  0.30722337176163633  Uiso  ?  O
O1  1.0  0.4345620667081017  0.2076524671099295  0.3078535811880104  Uiso  ?  O
O1  1.0  0.4717530973339505  0.20825188247764248  0.30692329064483176  Uiso  ?  O
O1  1.0  0.43377924483581604  0.17566358212211697  0.2705652785927475  Uiso  ?  O
O1  1.0  0.47042514781488903  0.17032337313799184  0.2727590563988381  Uiso  ?  O
O1  1.0  0.43658191174183675  0.2084055962709892  0.27271112039009276  Uiso  ?  O
O1  1.0  0.4690814856647023  0.2064627106366965  0.27142645220921974  Uiso  ?  O
Ce1  1.0  0.41644143439183795  0.15182755187328775  0.2510109793644652  Uiso  ?  Ce
Ce1  1.0  0.415616027696907  0.19119302212138403  0.21570770446764054  Uiso  ?  Ce
Ce1  1.0  0.4513409361391847  0.15429964770101362  0.21724042982658792  Uiso  ?  Ce
Ce1  1.0  0.45271727020308067  0.1904982162444475  0.2510107175792384  Uiso  ?  Ce
O1  1.0  0.4336701412152186  0.17174400982785631  0.23451188151123115  Uiso  ?  O
O1  1.0  0.4717775308260932  0.1703053962713044  0.2347767393250944  Uiso  ?  O
O1  1.0  0.4346041631389194  0.21016436508453828  0.23450526834421068  Uiso  ?  O
O1  1.0  0.47193553519266224  0.2108808144074152  0.2355360243891927  Uiso  ?  O
O1  1.0  0.43320616424945796  0.17208601622407632  0.1969745465794709  Uiso  ?  O
O1  1.0  0.4668731652898952  0.17307248228981403  0.1966656421120413  Uiso  ?  O
O1  1.0  0.43660772123746205  0.2104245579758394  0.19637842009882694  Uiso  ?  O
O1  1.0  0.4730612140746609  0.2089361408200684  0.19700379916082472  Uiso  ?  O
Ce1  1.0  0.4149015132405009  0.15463605321141188  0.17902051997522156  Uiso  ?  Ce
Ce1  1.0  0.4497477902991481  0.19171237363361232  0.17970196154323118  Uiso  ?  Ce
Ce1  1.0  0.4870745419427262  0.19298752007420242  0.809480928643895  Uiso  ?  Ce
Ce1  1.0  0.5277589810784641  0.15543568519696147  0.806087514589539  Uiso  ?  Ce
O1  1.0  0.5081483681095285  0.1716142508958483  0.8271988959425108  Uiso  ?  O
O1  1.0  0.5446488389007976  0.16947918714449797  0.8251603210415304  Uiso  ?  O
O1  1.0  0.5080149073830381  0.21131530814713995  0.8262950495649782  Uiso  ?  O
O1  1.0  0.5470610423964077  0.20897283727233726  0.8264840737562359  Uiso  ?  O
O1  1.0  0.5098101321468711  0.17319619398213382  0.7885088951215984  Uiso  ?  O
O1  1.0  0.5436799656279172  0.1714383361858118  0.7913004975070763  Uiso  ?  O
O1  1.0  0.5068507631856267  0.2099605490795132  0.7882191794945989  Uiso  ?  O
O1  1.0  0.5461811087076538  0.21113633078323668  0.7896129712806073  Uiso  ?  O
Ce1  1.0  0.4876980896742876  0.15263238814188587  0.7733800829893712  Uiso  ?  Ce
Ce1  1.0  0.4898237659530404  0.19188786146673636  0.7367220408954822  Uiso  ?  Ce
Ce1  1.0  0.5277838303049076  0.1555941799469445  0.7331362166942448  Uiso  ?  Ce
Ce1  1.0  0.5267158302395784  0.18780645439386962  0.7729047504433636  Uiso  ?  Ce
O1  1.0  0.5079144180631695  0.17202133137957526  0.7514664190998577  Uiso  ?  O
O1  1.0  0.5438671269984232  0.17595490841317316  0.7514954253625017  Uiso  ?  O
O1  1.0  0.5086217768670585  0.21073677265972054  0.7540285727041486  Uiso  ?  O
O1  1.0  0.5426454803293893  0.2107345901590187  0.7533966129819412  Uiso  ?  O
O1  1.0  0.510185096964559  0.1711012643105128  0.7165302755228048  Uiso  ?  O
O1  1.0  0.5450498366776133  0.17131115010608955  0.7153877759002246  Uiso  ?  O
O1  1.0  0.5086298337401797  0.2088274608344127  0.7158251659571332  Uiso  ?  O
O1  1.0  0.5444157535273807  0.20910480581324575  0.7161865043605892  Uiso  ?  O
Ce1  1.0  0.48877661723424554  0.15556930365751098  0.6986390719696793  Uiso  ?  Ce
Ce1  1.0  0.4889369158769966  0.19157646995876948  0.6628504936007601  Uiso  ?  Ce
Ce1  1.0  0.5266880558429484  0.1530100651159281  0.6600224713997594  Uiso  ?  Ce
Ce1  1.0  0.5268223074574395  0.19013035040587795  0.6957064722442277  Uiso  ?  Ce
O1  1.0  0.5065681146063328  0.17404603091134188  0.6806430220072234  Uiso  ?  O
O1  1.0  0.5448226927478856  0.17323494859714353  0.6790377046400877  Uiso  ?  O
O1  1.0  0.5086159561613484  0.20852285993974348  0.680130596782311  Uiso  ?  O
O1  1.0  0.5462795073193702  0.20826636933855686  0.6782563602917154  Uiso  ?  O
O1  1.0  0.5104864000309511  0.17277671351078377  0.6424953293022816  Uiso  ?  O
O1  1.0  0.543088811152148  0.17059633128186472  0.6431264921167154  Uiso  ?  O
O1  1.0  0.5065197711598936  0.21111517847329614  0.6412829423696011  Uiso  ?  O
O1  1.0  0.5430029960452409  0.21031671614232983  0.6406717383884998  Uiso  ?  O
Ce1  1.0  0.4892823268070356  0.15540303743028086  0.6242318913692506  Uiso  ?  Ce
Ce1  1.0  0.4896511103404605  0.19088117007089456  0.585267540957354  Uiso  ?  Ce
Ce1  1.0  0.5271016773997549  0.15366193140878084  0.5853838309249919  Uiso  ?  Ce
Ce1  1.0  0.5265777631201112  0.19213713939400295  0.622639455323099  Uiso  ?  Ce
O1  1.0  0.5067579556378162  0.17261102107134468  0.604430147299468  Uiso  ?  O
O1  1.0  0.5448634964703352  0.17318829845824563  0.6059122610697713  Uiso  ?  O
O1  1.0  0.5088882142134882  0.20973012286333634  0.6038512836721948  Uiso  ?  O
O1  1.0  0.5458041067318331  0.20909382520759662  0.6052517817727662  Uiso  ?  O
O1  1.0  0.5083378658428676  0.17247543669993987  0.5690160391979482  Uiso  ?  O
O1  1.0  0.5441408857683466  0.17104663635103032  0.567855836540916  Uiso  ?  O
O1  1.0  0.5036146597647022  0.2078152176220187  0.570226264970859  Uiso  ?  O
O1  1.0  0.5437215781172442  0.21151849654310587  0.5673219539973509  Uiso  ?  O
Ce1  1.0  0.4906899109835533  0.15587082730754695  0.5485538863068218  Uiso  ?  Ce
Ce1  1.0  0.4888800221471821  0.1906253269991228  0.5104585500669858  Uiso  ?  Ce
Ce1  1.0  0.5260888367284424  0.15336524463356066  0.5125731543895754  Uiso  ?  Ce
Ce1  1.0  0.5251126125797358  0.1908939189762424  0.5505965384489856  Uiso  ?  Ce
O1  1.0  0.5098683567536633  0.1747144499954775  0.5307973578631352  Uiso  ?  O
O1  1.0  0.5406521476660306  0.17067068672748822  0.5288755761455294  Uiso  ?  O
O1  1.0  0.5090374046450442  0.2124253192704567  0.5278757689745142  Uiso  ?  O
O1  1.0  0.5438859367666501  0.21063929633054454  0.5289408582253566  Uiso  ?  O
O1  1.0  0.5069907595576827  0.1713494346215351  0.49201413709116704  Uiso  ?  O
O1  1.0  0.5442820123062329  0.17239146582750367  0.4931996662343524  Uiso  ?  O
O1  1.0  0.5070635211772746  0.2087603015508627  0.49203390489881715  Uiso  ?  O
O1  1.0  0.541954931541589  0.2088013579433085  0.4938159516101639  Uiso  ?  O
Ce1  1.0  0.48840059248611223  0.15477235209026113  0.47551855781614416  Uiso  ?  Ce
Ce1  1.0  0.4882207167979318  0.19171490248085055  0.43591991167427563  Uiso  ?  Ce
Ce1  1.0  0.5256985302075916  0.15177091588500224  0.43762267539788996  Uiso  ?  Ce
Ce1  1.0  0.5287205853684878  0.19157522846558336  0.47503823667669254  Uiso  ?  Ce
O1  1.0  0.5069854855506679  0.1725303423302733  0.4582547858514532  Uiso  ?  O
O1  1.0  0.5458242516267219  0.17236500761812393  0.45582114324945583  Uiso  ?  O
O1  1.0  0.5084592074247626  0.2094226491676302  0.45677969119877726  Uiso  ?  O
O1  1.0  0.5448049465271078  0.21035647950744504  0.45603134173929744  Uiso  ?  O
O1  1.0  0.5089275230332299  0.17142387183919564  0.4184939053889691  Uiso  ?  O
O1  1.0  0.5437523609225053  0.17122358744471539  0.41989202491740624  Uiso  ?  O
O1  1.0  0.5060637154268335  0.2093694352853467  0.41836707803713313  Uiso  ?  O
O1  1.0  0.5453867894772133  0.20938029898201105  0.41604251730964187  Uiso  ?  O
Ce1  1.0  0.48853438861122683  0.15237006242365636  0.4014678209934037  Uiso  ?  Ce
Ce1  1.0  0.4895238701257694  0.1902425007082888  0.3645954805690943  Uiso  ?  Ce
Ce1  1.0  0.5253287371790031  0.15069340501003622  0.36209221452668056  Uiso  ?  Ce
Ce1  1.0  0.5274181558024632  0.19035850736612872  0.40048037972401707  Uiso  ?  Ce
O1  1.0  0.5077692006306159  0.17258253562099443  0.3823368181344872  Uiso  ?  O
O1  1.0  0.5445905586398192  0.17146814942766275  0.3808578916916449  Uiso  ?  O
O1  1.0  0.5065222051440497  0.21084720454240644  0.3821406202066167  Uiso  ?  O
O1  1.0  0.5435539330939082  0.21087837488664415  0.3817776274832688  Uiso  ?  O
O1  1.0  0.5103447073469748  0.17176989703089413  0.34461523885577333  Uiso  ?  O
O1  1.0  0.5452524607433542  0.1711226495353373  0.3440485245712125  Uiso  ?  O
O1  1.0  0.5088091172069303  0.20887439238467262  0.3428837136136435  Uiso  ?  O
O1  1.0  0.5446801445781823  0.21026750077571735  0.3441138509758636  Uiso  ?  O
Ce1  1.0  0.48851445705939245  0.15269717642275082  0.3272971198817803  Uiso  ?  Ce
Ce1  1.0  0.4867246347379836  0.19072939606456796  0.2887541971362048  Uiso  ?  Ce
Ce1  1.0  0.5272640738274412  0.15411179394569652  0.2919188047909889  Uiso  ?  Ce
Ce1  1.0  0.528209133605235  0.19088809986279495  0.3272419020408336  Uiso  ?  Ce
O1  1.0  0.5062964775765292  0.17222110592988066  0.3096960613339514  Uiso  ?  O
O1  1.0  0.5447954874532294  0.1709871559451543  0.30988742217127435  Uiso  ?  O
O1  1.0  0.5072629691647522  0.21107615366530866  0.30796554675009696  Uiso  ?  O
O1  1.0  0.5448421305349224  0.21124139840789855  0.3085779546503708  Uiso  ?  O
O1  1.0  0.5079725172241897  0.17110660889574725  0.2730976122100631  Uiso  ?  O
O1  1.0  0.5457990891282484  0.1740548008923201  0.2713859255969599  Uiso  ?  O
O1  1.0  0.5071678347408091  0.2096190502596292  0.27246085177021606  Uiso  ?  O
O1  1.0  0.5432294650597324  0.21110175328471473  0.2720287346638795  Uiso  ?  O
Ce1  1.0  0.4877471872412655  0.1525500305353611  0.25194952358328027  Uiso  ?  Ce
Ce1  1.0  0.4922224391607815  0.19148569175387473  0.21591204982546974  Uiso  ?  Ce
Ce1  1.0  0.5228500999653573  0.15414042196902808  0.2150644880525932  Uiso  ?  Ce
Ce1  1.0  0.5238402647510617  0.19301179638117935  0.250397986922863  Uiso  ?  Ce
O1  1.0  0.5075213203293901  0.17077449285676077  0.2341951378368422  Uiso  ?  O
O1  1.0  0.542673956683321  0.1737128017455049  0.2336001601509745  Uiso  ?  O
O1  1.0  0.5061107266311886  0.20779885968654957  0.23478931393351113  Uiso  ?  O
O1  1.0  0.5432464222560623  0.209411447553708  0.23480861669983571  Uiso  ?  O
O1  1.0  0.5079164218520971  0.1727259116597555  0.1955130819742726  Uiso  ?  O
O1  1.0  0.5449136939988313  0.1713730180785757  0.19316490321900387  Uiso  ?  O
O1  1.0  0.5088502551609697  0.2094995737404621  0.1995245080103711  Uiso  ?  O
O1  1.0  0.5461023892651896  0.20950181415961222  0.196488250537418  Uiso  ?  O
Ce1  1.0  0.4891448669752055  0.15355953508171136  0.17592226890754636  Uiso  ?  Ce
Ce1  1.0  0.524874264632869  0.19151439210250176  0.17728069300958535  Uiso  ?  Ce
Ce1  1.0  0.5638101653300945  0.18964198897851045  0.8066809986858774  Uiso  ?  Ce
Ce1  1.0  0.5988040814651739  0.15313826801789282  0.8070541959559312  Uiso  ?  Ce
O1  1.0  0.5806135477944654  0.16981551085439697  0.8269981991305786  Uiso  ?  O
O1  1.0  0.618953658918389  0.17427216162401468  0.826189227303566  Uiso  ?  O
O1  1.0  0.5814654620976497  0.21125933363589106  0.8289592561715913  Uiso  ?  O
O1  1.0  0.6183232458383172  0.20830789722596557  0.8252448565168484  Uiso  ?  O
O1  1.0  0.5812646387756624  0.17262500954801807  0.789522496175543  Uiso  ?  O
O1  1.0  0.6198757204933593  0.17371257923281083  0.790675734190066  Uiso  ?  O
O1  1.0  0.5810439149439592  0.212056236425196  0.7909254520180345  Uiso  ?  O
O1  1.0  0.6201245305533701  0.21120468048026478  0.7897710965831021  Uiso  ?  O
Ce1  1.0  0.5625198079606775  0.15204326723341927  0.770337566412317  Uiso  ?  Ce
Ce1  1.0  0.5636503767748308  0.18940603146564897  0.7354514862966011  Uiso  ?  Ce
Ce1  1.0  0.5981141778613239  0.1520876528060567  0.7346428794023366  Uiso  ?  Ce
Ce1  1.0  0.6005682568910884  0.19022178063031134  0.7697360510569833  Uiso  ?  Ce
O1  1.0  0.5806256729999205  0.1743807393515245  0.75169921971055  Uiso  ?  O
O1  1.0  0.6182793534649308  0.1727614195641296  0.7541068147782392  Uiso  ?  O
O1  1.0  0.5816415313180697  0.20762238284615747  0.7535051379109317  Uiso  ?  O
O1  1.0  0.6182754605947807  0.2090580021517792  0.7521710353640728  Uiso  ?  O
O1  1.0  0.5817543996208406  0.17157350721054138  0.716963653088734  Uiso  ?  O
O1  1.0  0.6188955357000633  0.1711557259242381  0.71595466714191  Uiso  ?  O
O1  1.0  0.5837909271443774  0.20857394326200276  0.7178772267415393  Uiso  ?  O
O1  1.0  0.620629022284223  0.2097311915370275  0.7157457398839838  Uiso  ?  O
Ce1  1.0  0.5632206475798585  0.1568878255578759  0.6977260554116096  Uiso  ?  Ce
Ce1  1.0  0.5619740782519376  0.19330345635531815  0.6591955109762511  Uiso  ?  Ce
Ce1  1.0  0.598168115848798  0.1544591131425807  0.663195183563887  Uiso  ?  Ce
Ce1  1.0  0.59906145045642  0.1890266178111773  0.6961292003589473  Uiso  ?  Ce
O1  1.0  0.5831241585067982  0.17227872930964602  0.6777516447867847  Uiso  ?  O
O1  1.0  0.6221373868694686  0.17106088005051173  0.6792026540507217  Uiso  ?  O
O1  1.0  0.5830118585192667  0.21060184744512106  0.6776100036046873  Uiso  ?  O
O1  1.0  0.6175810227737298  0.2105469314984519  0.6825324895679478  Uiso  ?  O
O1  1.0  0.5837393421736247  0.1739918324746973  0.6408060561675439  Uiso  ?  O
O1  1.0  0.6182573805418964  0.17335112923512058  0.6424652456037125  Uiso  ?  O
O1  1.0  0.581433845137997  0.21020780815714019  0.6436982496907057  Uiso  ?  O
O1  1.0  0.61748826434463  0.21151914528596566  0.6424365053306275  Uiso  ?  O
Ce1  1.0  0.5638326687582244  0.15627854897664814  0.622234782453961  Uiso  ?  Ce
Ce1  1.0  0.562348010816972  0.19215939561506473  0.5849875698502447  Uiso  ?  Ce
Ce1  1.0  0.5998980263336269  0.15411895792704478  0.5877756949136552  Uiso  ?  Ce
Ce1  1.0  0.5993780164018531  0.19140731458736254  0.6234751941891727  Uiso  ?  Ce
O1  1.0  0.5803974320976546  0.17209128790488779  0.6036959287045823  Uiso  ?  O
O1  1.0  0.6199822836545941  0.17260803909969116  0.603193641023041  Uiso  ?  O
O1  1.0  0.5813653328025076  0.20782547152267591  0.6030028933878953  Uiso  ?  O
O1  1.0  0.6198076490274893  0.2088926007619727  0.606674844583041  Uiso  ?  O
O1  1.0  0.580652334400618  0.1727934783403739  0.5656195055137576  Uiso  ?  O
O1  1.0  0.6191954539750456  0.1727062282727526  0.5676843588105052  Uiso  ?  O
O1  1.0  0.5794532276462425  0.2081051597236081  0.5668515535970874  Uiso  ?  O
O1  1.0  0.619111947229017  0.20950473202454906  0.5685609059586053  Uiso  ?  O
Ce1  1.0  0.564764945992014  0.1556079863100525  0.5483503785547704  Uiso  ?  Ce
Ce1  1.0  0.5631989377275487  0.18914785190449404  0.5130743121514573  Uiso  ?  Ce
Ce1  1.0  0.5983845550866622  0.15358791823142048  0.512518085788253  Uiso  ?  Ce
Ce1  1.0  0.5979984062201887  0.1912500841573141  0.5516064473881316  Uiso  ?  Ce
O1  1.0  0.583548145594381  0.1718680344701214  0.5319846942085514  Uiso  ?  O
O1  1.0  0.6203959533488723  0.17286018272088335  0.5344209090991958  Uiso  ?  O
O1  1.0  0.5814340797697258  0.2110424368641975  0.5282441055205268  Uiso  ?  O
O1  1.0  0.6190572764641578  0.20894941622506127  0.5325845531347019  Uiso  ?  O
O1  1.0  0.5806228805343491  0.17178066208013046  0.4936620708036858  Uiso  ?  O
O1  1.0  0.6176100731349222  0.17358313807738732  0.49146142050060304  Uiso  ?  O
O1  1.0  0.5822349863294884  0.2094462186176466  0.492615229433134  Uiso  ?  O
O1  1.0  0.6180417833381104  0.20978328464555163  0.4946292513484697  Uiso  ?  O
Ce1  1.0  0.5620176212526976  0.1498502521636809  0.4767305004930632  Uiso  ?  Ce
Ce1  1.0  0.5628281127560419  0.19201379295344928  0.43983161462862036  Uiso  ?  Ce
Ce1  1.0  0.6003470180681948  0.15272202843453345  0.4367674925841412  Uiso  ?  Ce
Ce1  1.0  0.5994176248262052  0.1883418021562863  0.4747177145191337  Uiso  ?  Ce
O1  1.0  0.5812320339062529  0.17113904901594745  0.4560166941025815  Uiso  ?  O
O1  1.0  0.6218136962905157  0.17155413799132863  0.4575578863656286  Uiso  ?  O
O1  1.0  0.5832234580408383  0.21123634048810883  0.4567851869780101  Uiso  ?  O
O1  1.0  0.6180526237688173  0.20983778228782227  0.4554715627295026  Uiso  ?  O
O1  1.0  0.5817622905554357  0.17466159012900828  0.41875152868999227  Uiso  ?  O
O1  1.0  0.6207300474821291  0.17082409205339688  0.41864591223418396  Uiso  ?  O
O1  1.0  0.5829394679939905  0.20919670984317662  0.4187840109285856  Uiso  ?  O
O1  1.0  0.6207207556767914  0.2106514054863006  0.41774394786760405  Uiso  ?  O
Ce1  1.0  0.5626096697734656  0.15263366713966822  0.3993297052857335  Uiso  ?  Ce
Ce1  1.0  0.5653591241418635  0.19045558978992583  0.36326925925290626  Uiso  ?  Ce
Ce1  1.0  0.6027447342185708  0.15713663267233788  0.36399417250180555  Uiso  ?  Ce
Ce1  1.0  0.5986568206789359  0.19155690661958605  0.40139679618250085  Uiso  ?  Ce
O1  1.0  0.5788686652448259  0.17321832173803992  0.38195449079808247  Uiso  ?  O
O1  1.0  0.6192921952285014  0.17222526280199194  0.38090812772132765  Uiso  ?  O
O1  1.0  0.5802828545934612  0.20843623597651778  0.3804859318855031  Uiso  ?  O
O1  1.0  0.6170875175358478  0.2114684799395104  0.38320160406113823  Uiso  ?  O
O1  1.0  0.5825082875841269  0.1714811839575859  0.3447938160282708  Uiso  ?  O
O1  1.0  0.6195296108906224  0.17069331931557077  0.3431464520175488  Uiso  ?  O
O1  1.0  0.5807807390899913  0.2100295038226226  0.34415252086553616  Uiso  ?  O
O1  1.0  0.6176028690217524  0.21016036996264742  0.34520196232547073  Uiso  ?  O
Ce1  1.0  0.565454618370856  0.15298317631597438  0.3235042487406145  Uiso  ?  Ce
Ce1  1.0  0.5631951915260339  0.19339671258079966  0.2920639818026861  Uiso  ?  Ce
Ce1  1.0  0.6016321360603227  0.1561190207513382  0.2893729922155162  Uiso  ?  Ce
Ce1  1.0  0.6011112762687395  0.18915644934986453  0.3264361741875735  Uiso  ?  Ce
O1  1.0  0.583480737908417  0.17205505281038486  0.3105167225593916  Uiso  ?  O
O1  1.0  0.6196549659178977  0.17346288889843192  0.3088492294999222  Uiso  ?  O
O1  1.0  0.5814870301068228  0.20799101724671137  0.3059548800060607  Uiso  ?  O
O1  1.0  0.6214151186113251  0.2099462106226647  0.3074741267366765  Uiso  ?  O
O1  1.0  0.5834600016965895  0.17280671597172628  0.27120743338411807  Uiso  ?  O
O1  1.0  0.6190114015345741  0.17256613829488227  0.2698416582065368  Uiso  ?  O
O1  1.0  0.5805771942475632  0.21186129981250582  0.27155088027101976  Uiso  ?  O
O1  1.0  0.6181421235064931  0.20683477494796135  0.2725663967864232  Uiso  ?  O
Ce1  1.0  0.5637743244847858  0.1539758706924601  0.25233747084556335  Uiso  ?  Ce
Ce1  1.0  0.5649495177079952  0.19274278346590695  0.2164846589650998  Uiso  ?  Ce
Ce1  1.0  0.6005857018734049  0.15335004195778848  0.21584043028124614  Uiso  ?  Ce
Ce1  1.0  0.5995190869826452  0.1909005334737008  0.2508150566664371  Uiso  ?  Ce
O1  1.0  0.5820591287734946  0.17479050253840417  0.23327525608476163  Uiso  ?  O
O1  1.0  0.6179556735870846  0.17348159335328966  0.23472576174362808  Uiso  ?  O
O1  1.0  0.5810221938193503  0.20971486836999242  0.2333194687634405  Uiso  ?  O
O1  1.0  0.6192181949598515  0.20875167060231642  0.23497329499031466  Uiso  ?  O
O1  1.0  0.5839434052380654  0.17175170877331344  0.19832687962536905  Uiso  ?  O
O1  1.0  0.6186378216766595  0.17358158716712127  0.19619107098422214  Uiso  ?  O
O1  1.0  0.5821014839634187  0.20859768921677765  0.198603917828227  Uiso  ?  O
Ce1  1.0  0.5613889297085879  0.15161543665633545  0.17969042804634078  Uiso  ?  Ce
Ce1  1.0  0.6390199638322291  0.19084870868530626  0.8095610944162435  Uiso  ?  Ce
Ce1  1.0  0.6739928434828736  0.15535561449964158  0.8102128107081564  Uiso  ?  Ce
O1  1.0  0.6569981722830249  0.17119110644054106  0.8271486214072009  Uiso  ?  O
O1  1.0  0.6935432682449337  0.17315900102210569  0.8276400859617518  Uiso  ?  O
O1  1.0  0.6569421418413314  0.2096900868023306  0.8273516533068757  Uiso  ?  O
O1  1.0  0.692012231448988  0.20845288656977043  0.8271593133166942  Uiso  ?  O
O1  1.0  0.6574770720699804  0.1725974643287292  0.7891294352414124  Uiso  ?  O
O1  1.0  0.6933706179804001  0.17339866139218135  0.7898565929553721  Uiso  ?  O
O1  1.0  0.655357868924002  0.20782610723172262  0.7912085915137977  Uiso  ?  O
O1  1.0  0.6933619667119499  0.2075602527422637  0.7884554630105385  Uiso  ?  O
Ce1  1.0  0.6390705450382284  0.15592496535844155  0.771165146532005  Uiso  ?  Ce
Ce1  1.0  0.635904311279937  0.1927025280808434  0.7344042843132509  Uiso  ?  Ce
Ce1  1.0  0.6775778718187117  0.15439068151856924  0.7331402527037297  Uiso  ?  Ce
Ce1  1.0  0.674191862163615  0.1911366395683669  0.7700645934484878  Uiso  ?  Ce
O1  1.0  0.6565147607824553  0.1710823789966138  0.7523840349963129  Uiso  ?  O
O1  1.0  0.6921058127390881  0.17218183355011413  0.7545883789280345  Uiso  ?  O
O1  1.0  0.6558042743210849  0.21108143175396998  0.7559806677822354  Uiso  ?  O
O1  1.0  0.6916853751825651  0.20913301353723474  0.7525143750331933  Uiso  ?  O
O1  1.0  0.6546336075677227  0.1757707288093072  0.7174383016628122  Uiso  ?  O
O1  1.0  0.6931863528767654  0.17259437855244575  0.713619921022318  Uiso  ?  O
O1  1.0  0.6562693283614759  0.20897598915543197  0.7143850880668363  Uiso  ?  O
O1  1.0  0.692550977564719  0.20924462263457272  0.716674798268041  Uiso  ?  O
Ce1  1.0  0.6384963013462986  0.15230503908649315  0.6991516744162304  Uiso  ?  Ce
Ce1  1.0  0.6387358168649739  0.19148309680227493  0.66028293327942  Uiso  ?  Ce
Ce1  1.0  0.6755324592628913  0.154036349439592  0.6619638856639491  Uiso  ?  Ce
Ce1  1.0  0.6757488992459273  0.19259489522801418  0.6947263805503897  Uiso  ?  Ce
O1  1.0  0.6542902000839297  0.17141706075872395  0.6796321635980355  Uiso  ?  O
O1  1.0  0.6953694382225101  0.17438835788271717  0.679337054265585  Uiso  ?  O
O1  1.0  0.6544256744975137  0.2106685095391273  0.6788319575726226  Uiso  ?  O
O1  1.0  0.6932498551415995  0.20777258751587477  0.6809441098724298  Uiso  ?  O
O1  1.0  0.6572878012316501  0.171990903809666  0.6401211327004773  Uiso  ?  O
O1  1.0  0.6929038268824006  0.17102355237626407  0.6423703355811116  Uiso  ?  O
O1  1.0  0.656262208743489  0.21185931153282536  0.6412928111631331  Uiso  ?  O
O1  1.0  0.6943924937170514  0.2096546525965529  0.6406072835674533  Uiso  ?  O
Ce1  1.0  0.6366457587490337  0.15380803471630639  0.621267297063632  Uiso  ?  Ce
Ce1  1.0  0.6382467355779534  0.19011009237104343  0.5861257805185366  Uiso  ?  Ce
Ce1  1.0  0.6756582438675393  0.15336149175895722  0.5850617781863227  Uiso  ?  Ce
Ce1  1.0  0.6721268081164832  0.19053348030997197  0.6233623786367184  Uiso  ?  Ce
O1  1.0  0.6564320873941661  0.17074425652172168  0.606427687486399  Uiso  ?  O
O1  1.0  0.6932133391936449  0.17398917187566648  0.6044229286318507  Uiso  ?  O
O1  1.0  0.6544637117357672  0.210319549139157  0.6048156172590581  Uiso  ?  O
O1  1.0  0.692711079690522  0.20839515837553382  0.6038994545664491  Uiso  ?  O
O1  1.0  0.6576171709463701  0.17312365589240444  0.5670883130787963  Uiso  ?  O
O1  1.0  0.6922180638409795  0.16974110785679816  0.5683615872103474  Uiso  ?  O
O1  1.0  0.6562215536646708  0.20985511718568065  0.5698042194696006  Uiso  ?  O
O1  1.0  0.6915477058822649  0.21128949513587647  0.5683198488842309  Uiso  ?  O
Ce1  1.0  0.6367209956443635  0.1554538445791213  0.5484703515312175  Uiso  ?  Ce
Ce1  1.0  0.6344058781928628  0.19066185512814066  0.5135977765991587  Uiso  ?  Ce
Ce1  1.0  0.6763016893866963  0.1537419210788151  0.5106575695618089  Uiso  ?  Ce
Ce1  1.0  0.6763182473702337  0.18967995705230645  0.5480013736352954  Uiso  ?  Ce
O1  1.0  0.6577402096306258  0.17401658969465925  0.5302317071326519  Uiso  ?  O
O1  1.0  0.6921873462444731  0.17219310756307116  0.5300121983701639  Uiso  ?  O
O1  1.0  0.655131840855441  0.20948806208296028  0.5298147355314139  Uiso  ?  O
O1  1.0  0.6919892073328752  0.21174415161823046  0.5313297540805116  Uiso  ?  O
O1  1.0  0.6558021527290613  0.1721722045812775  0.4948460534831922  Uiso  ?  O
O1  1.0  0.690930978762143  0.17085623446969073  0.49224466450950877  Uiso  ?  O
O1  1.0  0.6554029079519849  0.20997557285821847  0.4911241055063261  Uiso  ?  O
O1  1.0  0.6917029892329963  0.20807976026464467  0.494894284491536  Uiso  ?  O
Ce1  1.0  0.6364119099650006  0.15509746091398116  0.47469395721575863  Uiso  ?  Ce
Ce1  1.0  0.6386534975540284  0.19250639551716153  0.4391171211952637  Uiso  ?  Ce
Ce1  1.0  0.6716560388424677  0.1531198048238984  0.4368524088190114  Uiso  ?  Ce
Ce1  1.0  0.6766793422896982  0.19238299586783883  0.47312443072054056  Uiso  ?  Ce
O1  1.0  0.6576453904415258  0.17229240573763974  0.4567156102303895  Uiso  ?  O
O1  1.0  0.692071996959869  0.17216945714081872  0.4554993536081407  Uiso  ?  O
O1  1.0  0.653177334826768  0.2115009955077826  0.4587189160431863  Uiso  ?  O
O1  1.0  0.695403430218655  0.20852462144865686  0.4585338467328415  Uiso  ?  O
O1  1.0  0.6562275466184695  0.1743031946306729  0.42020619984323093  Uiso  ?  O
O1  1.0  0.6941232566127369  0.17240902324869056  0.4216051468817033  Uiso  ?  O
O1  1.0  0.6552977467537895  0.20912489253603767  0.41823130846631856  Uiso  ?  O
O1  1.0  0.6931350517748547  0.20816556289047827  0.41858799617746484  Uiso  ?  O
Ce1  1.0  0.6350858616995141  0.14947380059462562  0.3982520990119182  Uiso  ?  Ce
Ce1  1.0  0.637369881350279  0.19270604224853422  0.3642443598145331  Uiso  ?  Ce
Ce1  1.0  0.6750427411522534  0.15621267829202864  0.36431049068783866  Uiso  ?  Ce
Ce1  1.0  0.6738772652845207  0.1913562841234721  0.39839357331749325  Uiso  ?  Ce
O1  1.0  0.657229192949925  0.17288498800201094  0.38493009915825976  Uiso  ?  O
O1  1.0  0.692784727604489  0.1720380186932704  0.3801723901899662  Uiso  ?  O
O1  1.0  0.6558494064359294  0.20883933168453545  0.3812383097175597  Uiso  ?  O
O1  1.0  0.6939779307068389  0.208309784286841  0.38232684275296935  Uiso  ?  O
O1  1.0  0.6557692840123941  0.17162693142754445  0.3475358041670273  Uiso  ?  O
O1  1.0  0.6907576088355525  0.1732606084631006  0.34461278124076095  Uiso  ?  O
O1  1.0  0.6561731951101297  0.20983196272970264  0.34463250820944874  Uiso  ?  O
O1  1.0  0.6941901051473623  0.20750738196159985  0.34547158091605595  Uiso  ?  O
Ce1  1.0  0.637495011600505  0.1523740726290679  0.3261535895797169  Uiso  ?  Ce
Ce1  1.0  0.6365522755151835  0.19058711735029213  0.287363559247536  Uiso  ?  Ce
Ce1  1.0  0.6748620696917786  0.15289969155792033  0.2882875788576483  Uiso  ?  Ce
Ce1  1.0  0.6728431397827346  0.19059238324529607  0.3256506605208417  Uiso  ?  Ce
O1  1.0  0.6555239519641123  0.1693656671634353  0.30737003387146905  Uiso  ?  O
O1  1.0  0.6920731270794278  0.1720208053760765  0.3082106215928359  Uiso  ?  O
O1  1.0  0.6555826460522624  0.20620069214272155  0.3079734690925176  Uiso  ?  O
O1  1.0  0.694021603573059  0.21101485359307623  0.3087885820814728  Uiso  ?  O
O1  1.0  0.6584950456301448  0.17196135742250523  0.2702696309483167  Uiso  ?  O
O1  1.0  0.6903692389423408  0.1706125415447843  0.2713277544251791  Uiso  ?  O
O1  1.0  0.6557521035967009  0.20849934678421997  0.27149951981523207  Uiso  ?  O
Ce1  1.0  0.6366843063043869  0.15623743955729266  0.25368700419657564  Uiso  ?  Ce
Ce1  1.0  0.6757573537505578  0.1910247889408936  0.25034731381421654  Uiso  ?  Ce
O1  1.0  0.6569652634758333  0.17257992686422519  0.23443624189848533  Uiso  ?  O
Ce1  1.0  0.7104038689130822  0.18725133447402792  0.8088389875280431  Uiso  ?  Ce
Ce1  1.0  0.7492063298862146  0.15294316084708284  0.8071138517495231  Uiso  ?  Ce
O1  1.0  0.7308968672641989  0.17177851632492153  0.8284156213633681  Uiso  ?  O
O1  1.0  0.7666720928602858  0.1733530639228768  0.8259668112920752  Uiso  ?  O
O1  1.0  0.7308488684351435  0.21070025214385474  0.8280771128129645  Uiso  ?  O
O1  1.0  0.7682173561255246  0.2090211234917685  0.8268727384084836  Uiso  ?  O
O1  1.0  0.7238123697670797  0.17184162446335394  0.790451779013782  Uiso  ?  O
O1  1.0  0.765840943631189  0.16964346211995368  0.7891808410276996  Uiso  ?  O
O1  1.0  0.7269486300222374  0.20498673177322577  0.7922089687096758  Uiso  ?  O
O1  1.0  0.7657612692582997  0.20879678572540072  0.7923971681997645  Uiso  ?  O
Ce1  1.0  0.7119966558595676  0.15342666181636827  0.7716925335024291  Uiso  ?  Ce
Ce1  1.0  0.7138132582903577  0.19151789194463872  0.735591687036798  Uiso  ?  Ce
Ce1  1.0  0.749210790155005  0.15492014291397674  0.7337431460395564  Uiso  ?  Ce
Ce1  1.0  0.7489589231261176  0.1931608147614693  0.7716628737864618  Uiso  ?  Ce
O1  1.0  0.7280884743438404  0.17239294436739327  0.7536405099461629  Uiso  ?  O
O1  1.0  0.7674783230743101  0.17071783366713986  0.7515051019177197  Uiso  ?  O
O1  1.0  0.7299185659490678  0.21076265042293232  0.7560204132273906  Uiso  ?  O
O1  1.0  0.7678492665773324  0.21131420963538539  0.7540021727003133  Uiso  ?  O
O1  1.0  0.7293533150772791  0.1697834432702066  0.7161996496318911  Uiso  ?  O
O1  1.0  0.769853073573983  0.1699204640164614  0.7157552463744179  Uiso  ?  O
O1  1.0  0.7294803767453228  0.20917904009362887  0.7162712577734209  Uiso  ?  O
O1  1.0  0.7673114782804014  0.2101520239870219  0.7162091410493254  Uiso  ?  O
Ce1  1.0  0.7116024585188235  0.1541947945740875  0.6966274598750201  Uiso  ?  Ce
Ce1  1.0  0.7133541714375472  0.1891575427742194  0.6579286749998361  Uiso  ?  Ce
Ce1  1.0  0.7483957528957266  0.15541949367558713  0.6615771750678723  Uiso  ?  Ce
Ce1  1.0  0.7496257040341979  0.19001267871085792  0.6980908139494045  Uiso  ?  Ce
O1  1.0  0.7276941945230352  0.1720972568691449  0.6803343020496989  Uiso  ?  O
O1  1.0  0.7672017824248587  0.17171437441836426  0.6772640662755729  Uiso  ?  O
O1  1.0  0.7285759626458806  0.20921330310360073  0.6776434042851508  Uiso  ?  O
O1  1.0  0.7668138205403106  0.20887584749764798  0.6799002725365213  Uiso  ?  O
O1  1.0  0.7313691543110171  0.17436012708095014  0.6417762808712313  Uiso  ?  O
O1  1.0  0.7668359863141796  0.17176526454028626  0.6393773356659164  Uiso  ?  O
O1  1.0  0.7295794891724132  0.20958495331551708  0.6411806951280872  Uiso  ?  O
O1  1.0  0.7662022877816336  0.2110412174728029  0.6435848441444799  Uiso  ?  O
Ce1  1.0  0.7104953245575841  0.15303327273171158  0.622286617925645  Uiso  ?  Ce
Ce1  1.0  0.7113947358975089  0.18981579854426725  0.5840903961114052  Uiso  ?  Ce
Ce1  1.0  0.7503094941926902  0.15410632772313768  0.5834110324679282  Uiso  ?  Ce
Ce1  1.0  0.747597362274563  0.18681793995266888  0.6215370005968371  Uiso  ?  Ce
O1  1.0  0.7310904112192621  0.17334606875215738  0.6056153088321499  Uiso  ?  O
O1  1.0  0.7684835020937014  0.17385346408234406  0.6037266411591985  Uiso  ?  O
O1  1.0  0.7330076198478769  0.21000882361621112  0.6025484583278341  Uiso  ?  O
O1  1.0  0.7673145391728362  0.20827756696240693  0.606310408411103  Uiso  ?  O
O1  1.0  0.7274192471989299  0.17011492115611976  0.5665028111358127  Uiso  ?  O
O1  1.0  0.7673406388224082  0.17394454809692306  0.5672604796073276  Uiso  ?  O
O1  1.0  0.7307717280981804  0.20859518106804573  0.5665483501363304  Uiso  ?  O
O1  1.0  0.7669210506791571  0.20987904000983887  0.5671540468512702  Uiso  ?  O
Ce1  1.0  0.7128191401094852  0.1523018817027457  0.549256276135604  Uiso  ?  Ce
Ce1  1.0  0.7159600926244748  0.18920013576011574  0.5125965938742173  Uiso  ?  Ce
Ce1  1.0  0.746856102562053  0.15520919160820795  0.5142525163732282  Uiso  ?  Ce
Ce1  1.0  0.7477031304544779  0.19218889176200685  0.548837445662179  Uiso  ?  Ce
O1  1.0  0.7287109814006921  0.1736659975720225  0.5267837298636225  Uiso  ?  O
O1  1.0  0.7644106531823917  0.17300040102825273  0.529734017457723  Uiso  ?  O
O1  1.0  0.7292672889860029  0.20872092179981896  0.5311798969443012  Uiso  ?  O
O1  1.0  0.766831158991915  0.20946485355502667  0.530530953374175  Uiso  ?  O
O1  1.0  0.7299190215972923  0.17313623358047012  0.4924766479486856  Uiso  ?  O
O1  1.0  0.7655277266413862  0.1703306337231602  0.49102396705977885  Uiso  ?  O
O1  1.0  0.7296882791210422  0.21008637247843834  0.4912824762691261  Uiso  ?  O
O1  1.0  0.7676648366262805  0.20766633145107385  0.49387346881366195  Uiso  ?  O
Ce1  1.0  0.7116799843858815  0.15353857541783805  0.47691350623589557  Uiso  ?  Ce
Ce1  1.0  0.7140245542771778  0.19142140502676835  0.4354907523560235  Uiso  ?  Ce
Ce1  1.0  0.7480825917828764  0.15409172120934675  0.43543695979318947  Uiso  ?  Ce
Ce1  1.0  0.7506971096377671  0.19036743904701792  0.4778161906596291  Uiso  ?  Ce
O1  1.0  0.7297876852016943  0.16996564903300102  0.45800820138380094  Uiso  ?  O
O1  1.0  0.7678181777498704  0.17177324268294875  0.4537053132828869  Uiso  ?  O
O1  1.0  0.7302066488041948  0.20770850218110332  0.45738170537520684  Uiso  ?  O
O1  1.0  0.7671732297314278  0.20867358907470515  0.45824084150478867  Uiso  ?  O
O1  1.0  0.7277702306256547  0.1710123454628108  0.42116161035836847  Uiso  ?  O
O1  1.0  0.766212717992794  0.17095780693321877  0.41904555153817485  Uiso  ?  O
O1  1.0  0.7314092379431699  0.20788987630261968  0.42019582312224835  Uiso  ?  O
O1  1.0  0.7694039694515569  0.20942868221947913  0.4204940590256663  Uiso  ?  O
Ce1  1.0  0.7137611767056704  0.1538417287784061  0.39981688095792817  Uiso  ?  Ce
Ce1  1.0  0.7097121148295567  0.18936857905678295  0.36460430773947494  Uiso  ?  Ce
Ce1  1.0  0.7470708269929887  0.1541928737205137  0.36373108546837224  Uiso  ?  Ce
Ce1  1.0  0.7470962092709483  0.189873955789587  0.40172030023211697  Uiso  ?  Ce
O1  1.0  0.7303885240812205  0.17196631661483755  0.3843924747082118  Uiso  ?  O
O1  1.0  0.7673352399577533  0.17276848053965643  0.38276395155003495  Uiso  ?  O
O1  1.0  0.7317954448620453  0.21178604271504306  0.38395613283540264  Uiso  ?  O
O1  1.0  0.7659687053031328  0.20711289363087065  0.3796344089783797  Uiso  ?  O
O1  1.0  0.7323521386259322  0.1746068737925063  0.34503443277848767  Uiso  ?  O
O1  1.0  0.7685992997056731  0.1733717139525234  0.34681185302595596  Uiso  ?  O
O1  1.0  0.7281894242928538  0.209389979142695  0.34591049577784727  Uiso  ?  O
Ce1  1.0  0.7113101693778162  0.15491467023496813  0.3252034000244253  Uiso  ?  Ce
Ce1  1.0  0.7117100159813983  0.19190848705518251  0.2902804534952419  Uiso  ?  Ce
Ce1  1.0  0.7470110459036877  0.1921873862044483  0.32800191647831317  Uiso  ?  Ce
O1  1.0  0.7295108903509215  0.17251898700291762  0.30837318076014586  Uiso  ?  O
O1  1.0  0.17149796332868064  0.13810045389453282  0.679555157470526  Uiso  ?  O
O1  1.0  0.17473504336721776  0.13797466859492707  0.45453343217009323  Uiso  ?  O
O1  1.0  0.17331799017603128  0.1385585076737174  0.34476938049806755  Uiso  ?  O
O1  1.0  0.17163008116673178  0.13769061347230188  0.19628687753598287  Uiso  ?  O
O1  1.0  0.2479741779847675  0.13727768127377316  0.7910808676364288  Uiso  ?  O
O1  1.0  0.2509887788655961  0.13728008162063388  0.7519730831562648  Uiso  ?  O
O1  1.0  0.2456498232512477  0.1382373733558651  0.5653557440151292  Uiso  ?  O
O1  1.0  0.28645187914680603  0.13821922182107566  0.7141020585282931  Uiso  ?  O
O1  1.0  0.3224677781052474  0.1373394809894189  0.6047373171691172  Uiso  ?  O
O1  1.0  0.360870268500803  0.13711196280431107  0.6055690256045735  Uiso  ?  O
O1  1.0  0.3597449533095817  0.1371161760958423  0.5677135082016636  Uiso  ?  O
O1  1.0  0.4338344200273593  0.1371312189936044  0.38275007734216465  Uiso  ?  O
O1  1.0  0.46982601095295223  0.13804828237120934  0.38362067546053824  Uiso  ?  O
O1  1.0  0.5101504724590755  0.13878660654454408  0.41769577921191436  Uiso  ?  O
O1  1.0  0.580336292012192  0.138043606699773  0.7167850832409042  Uiso  ?  O
O1  1.0  0.5835147619449206  0.13778662140655695  0.4926182307470179  Uiso  ?  O
O1  1.0  0.5813825940766684  0.13741845585230425  0.34627921534861755  Uiso  ?  O
O1  1.0  0.5819081484528931  0.13842054545936702  0.19570738140588811  Uiso  ?  O
O1  1.0  0.6927811440907236  0.13733621428550405  0.7522311582505838  Uiso  ?  O
O1  1.0  0.6547875595940189  0.1377227596334058  0.6794542716873962  Uiso  ?  O
O1  1.0  0.656281810940227  0.13820231484191312  0.6070572256398511  Uiso  ?  O
O1  1.0  0.6568151245344489  0.13800772339707515  0.4938197425989876  Uiso  ?  O
O1  1.0  0.6534813035346467  0.1371115597500434  0.30769128156974934  Uiso  ?  O
O1  1.0  0.6555292394932897  0.13889833217389963  0.2695159186151698  Uiso  ?  O
O1  1.0  0.7327227461423969  0.137593596422104  0.7508174710981715  Uiso  ?  O
O1  1.0  0.7294317448325678  0.13791820285200387  0.5683376275088898  Uiso  ?  O
O1  1.0  0.7299815741383806  0.1374776173269745  0.42139235893078436  Uiso  ?  O
O1  1.0  0.7294202582638658  0.1373418363820802  0.3815200194969184  Uiso  ?  O
O1  1.0  0.7691226775243455  0.13715196567694465  0.3437250784499086  Uiso  ?  O
