data_global
_audit_creation_method 'Generated by Python Script'

_symmetry_space_group_name_H-M 'P 1'
_symmetry_Int_Tables_number 1
_symmetry_cell_setting triclinic
loop_
_symmetry_equiv_pos_as_xyz
  'x, y, z'

_cell_length_a    56.14704598477684
_cell_length_b    56.14704598477684
_cell_length_c    56.14704598477684
_cell_angle_alpha 90.0
_cell_angle_beta  90.0
_cell_angle_gamma 90.0

loop_
_atom_site_label
_atom_site_occupancy
_atom_site_fract_x
_atom_site_fract_y
_atom_site_fract_z
_atom_site_adp_type
_atom_site_U_iso_or_equiv
_atom_site_type_symbol
Pt1  1.0  0.4420462513853275  0.41278401344710924  0.6049588998335879  Uiso  ?  Pt
Pt1  1.0  0.4070104729139085  0.41245060547900947  0.5709545869195974  Uiso  ?  Pt
Pt1  1.0  0.4061581658336757  0.44777593382474223  0.5332239388960555  Uiso  ?  Pt
Pt1  1.0  0.4449431823412301  0.4480439425771552  0.5714571457434646  Uiso  ?  Pt
Pt1  1.0  0.4394660047016086  0.4117550541151563  0.5348853771389989  Uiso  ?  Pt
Pt1  1.0  0.40507688895768507  0.4117330757042239  0.4988548496386225  Uiso  ?  Pt
Pt1  1.0  0.4048755527098561  0.4455108010532846  0.46312436532580925  Uiso  ?  Pt
Pt1  1.0  0.44166297865751725  0.4493522532557663  0.5034547896297954  Uiso  ?  Pt
Pt1  1.0  0.4415617979836877  0.41053326209682656  0.46793372571223096  Uiso  ?  Pt
Pt1  1.0  0.4086032140356836  0.414729814447064  0.43021208939137023  Uiso  ?  Pt
Pt1  1.0  0.44220779773231  0.44372358254918626  0.4297175572968997  Uiso  ?  Pt
Pt1  1.0  0.4429964683258771  0.41084872136743017  0.39313585130871914  Uiso  ?  Pt
Pt1  1.0  0.47559951895349656  0.41242753882503574  0.6398027532142936  Uiso  ?  Pt
Pt1  1.0  0.4766565535473778  0.4470535826900389  0.6079419865401924  Uiso  ?  Pt
Pt1  1.0  0.5114607344233609  0.44219311437338576  0.639709606056231  Uiso  ?  Pt
Pt1  1.0  0.5086036839531313  0.4130735987105813  0.6033760102192262  Uiso  ?  Pt
Pt1  1.0  0.4780440237755823  0.410896132549016  0.5708286107196476  Uiso  ?  Pt
Pt1  1.0  0.47906313582331667  0.44602633595089003  0.5343193508455689  Uiso  ?  Pt
Pt1  1.0  0.513501170242228  0.44753321508657995  0.5664344206418443  Uiso  ?  Pt
Pt1  1.0  0.5094881113439986  0.41295764352790554  0.533358358424005  Uiso  ?  Pt
Pt1  1.0  0.4760259907405731  0.41175937212008906  0.5000199336748001  Uiso  ?  Pt
Pt1  1.0  0.4758356029328858  0.4476379961337394  0.4651811428263961  Uiso  ?  Pt
Pt1  1.0  0.5127829231867802  0.44736266829717153  0.5017407159295202  Uiso  ?  Pt
Pt1  1.0  0.5116226686813169  0.4105829291740108  0.4640312150057319  Uiso  ?  Pt
Pt1  1.0  0.47917213468725334  0.4123462738105192  0.4304012312269929  Uiso  ?  Pt
Pt1  1.0  0.4799239346061454  0.44605533956408655  0.3958121882146002  Uiso  ?  Pt
Pt1  1.0  0.5108963455458211  0.4455092665186714  0.43261519937072984  Uiso  ?  Pt
Pt1  1.0  0.5115308149732205  0.41014680928145986  0.39519851200866896  Uiso  ?  Pt
Pt1  1.0  0.47479453609178446  0.4098689466478477  0.36136587926050723  Uiso  ?  Pt
Pt1  1.0  0.5114436417114399  0.4429919804014361  0.35816664030265927  Uiso  ?  Pt
Pt1  1.0  0.5467537766011782  0.4137661717017279  0.641911086835302  Uiso  ?  Pt
Pt1  1.0  0.5447930593980024  0.4458219362998616  0.6053696142494965  Uiso  ?  Pt
Pt1  1.0  0.5843936267871376  0.4481515688516296  0.641986679207005  Uiso  ?  Pt
Pt1  1.0  0.5841445140420239  0.414385167034529  0.6058238628971537  Uiso  ?  Pt
Pt1  1.0  0.5449549486500603  0.41237275392488026  0.5705969138216294  Uiso  ?  Pt
Pt1  1.0  0.5461018629640414  0.44672881121766683  0.5362334729160598  Uiso  ?  Pt
Pt1  1.0  0.5805957026262131  0.44834565557262335  0.5689333335762449  Uiso  ?  Pt
Pt1  1.0  0.5813232224308622  0.4106869191416541  0.534597264317543  Uiso  ?  Pt
Pt1  1.0  0.5468486863186758  0.40903063203351725  0.49916158222537166  Uiso  ?  Pt
Pt1  1.0  0.5495612226869235  0.44955078582013336  0.4650157237795914  Uiso  ?  Pt
Pt1  1.0  0.5831571487827582  0.44545410481487113  0.5007576196075197  Uiso  ?  Pt
Pt1  1.0  0.5797844570768557  0.41270500383176173  0.46559264151747226  Uiso  ?  Pt
Pt1  1.0  0.5453669104625755  0.4119793669602255  0.42849909158071026  Uiso  ?  Pt
Pt1  1.0  0.5476126166481478  0.44397352828296976  0.3949615313693663  Uiso  ?  Pt
Pt1  1.0  0.5812480987631002  0.4469814869261471  0.42798871547587697  Uiso  ?  Pt
Pt1  1.0  0.5833705637651738  0.4119823996633279  0.3958917287307255  Uiso  ?  Pt
Pt1  1.0  0.5467909682891302  0.41076263062574647  0.3584512475208206  Uiso  ?  Pt
Pt1  1.0  0.5783334493797406  0.44656974673861777  0.3646354001262897  Uiso  ?  Pt
Pt1  1.0  0.6171970236376995  0.40830453050736115  0.6415948541710467  Uiso  ?  Pt
Pt1  1.0  0.6159107885000752  0.44971910974329116  0.602861414518431  Uiso  ?  Pt
Pt1  1.0  0.6528377484076239  0.4100007497999836  0.6062569799078033  Uiso  ?  Pt
Pt1  1.0  0.6173463180560012  0.41119622329900407  0.5683997187041469  Uiso  ?  Pt
Pt1  1.0  0.6147951147255678  0.4473716036227357  0.531784363877108  Uiso  ?  Pt
Pt1  1.0  0.6494424404546707  0.4467093188315401  0.5715945338292374  Uiso  ?  Pt
Pt1  1.0  0.6506973401436723  0.4120135125312541  0.5326238704231014  Uiso  ?  Pt
Pt1  1.0  0.6151889761373093  0.4137929160749483  0.49852078535579397  Uiso  ?  Pt
Pt1  1.0  0.615324183292062  0.445965220620977  0.4690893603957016  Uiso  ?  Pt
Pt1  1.0  0.6497475002591426  0.44610897974451097  0.5003828771657309  Uiso  ?  Pt
Pt1  1.0  0.650779222114592  0.4148393519404077  0.46447206329457563  Uiso  ?  Pt
Pt1  1.0  0.6156609211881023  0.41067430879882255  0.4286041297483082  Uiso  ?  Pt
Pt1  1.0  0.6183148479081217  0.45150779395007995  0.3971496322439582  Uiso  ?  Pt
Pt1  1.0  0.6483374894079527  0.4499940358006659  0.43151354487193094  Uiso  ?  Pt
Pt1  1.0  0.6498817214943613  0.4109295967481274  0.3944281863889179  Uiso  ?  Pt
Pt1  1.0  0.6182752757465837  0.4119917911395279  0.35745009197069605  Uiso  ?  Pt
Pt1  1.0  0.6840950157782006  0.4119466856475747  0.5702445654682081  Uiso  ?  Pt
Pt1  1.0  0.6845745712002366  0.44417667160576324  0.5383946673607493  Uiso  ?  Pt
Pt1  1.0  0.6850473220951635  0.41044818249477383  0.5000736668573712  Uiso  ?  Pt
Pt1  1.0  0.6834488583734281  0.4478884655240188  0.462834585757518  Uiso  ?  Pt
Pt1  1.0  0.6880807948548779  0.40941681619222803  0.4315197869406046  Uiso  ?  Pt
Pt1  1.0  0.44505008467244017  0.4822751143440917  0.5378351026316672  Uiso  ?  Pt
Pt1  1.0  0.4062822341264122  0.48224640355924986  0.4990009218520417  Uiso  ?  Pt
Pt1  1.0  0.44425827800709616  0.4794825325351832  0.4634210135790183  Uiso  ?  Pt
Pt1  1.0  0.5117368785432036  0.4802825423252223  0.6056018132271328  Uiso  ?  Pt
Pt1  1.0  0.47836949189729233  0.48243283075639787  0.5689603493222649  Uiso  ?  Pt
Pt1  1.0  0.5124996581407819  0.4828117131111791  0.5366636342602108  Uiso  ?  Pt
Pt1  1.0  0.4779285089871029  0.4825267740598684  0.5029115110779071  Uiso  ?  Pt
Pt1  1.0  0.510901018361976  0.4785635010016776  0.4654306267105717  Uiso  ?  Pt
Pt1  1.0  0.4746120359593621  0.48450016228641485  0.4288967248305008  Uiso  ?  Pt
Pt1  1.0  0.5098992248898689  0.48158164360709693  0.3942498786769695  Uiso  ?  Pt
Pt1  1.0  0.547213089006359  0.48138910296869425  0.6388892135693552  Uiso  ?  Pt
Pt1  1.0  0.5828894893716136  0.4820613346093404  0.6059908652227557  Uiso  ?  Pt
Pt1  1.0  0.5483252393992284  0.4828234187285793  0.5681789312748938  Uiso  ?  Pt
Pt1  1.0  0.581730777944268  0.4817430760277962  0.532479140964344  Uiso  ?  Pt
Pt1  1.0  0.5460372863989723  0.48157933933581454  0.4993759498117289  Uiso  ?  Pt
Pt1  1.0  0.5829952680963257  0.48387115092241784  0.4640101654960649  Uiso  ?  Pt
Pt1  1.0  0.5461986510970918  0.4816706545599575  0.429779698552378  Uiso  ?  Pt
Pt1  1.0  0.5818432754850814  0.48347857417908013  0.39434503536991206  Uiso  ?  Pt
Pt1  1.0  0.543919160048551  0.482479994688704  0.35598221670810876  Uiso  ?  Pt
Pt1  1.0  0.6173613125171903  0.4825995392796316  0.5720661401506146  Uiso  ?  Pt
Pt1  1.0  0.6514414589197771  0.4816784353272731  0.5322113083535108  Uiso  ?  Pt
Pt1  1.0  0.6173819407017154  0.4800967554217169  0.4998837736158471  Uiso  ?  Pt
Pt1  1.0  0.6496507473689602  0.4820839465849444  0.46139015847872633  Uiso  ?  Pt
Pt1  1.0  0.6154309441726913  0.4795773843517971  0.43015550685324444  Uiso  ?  Pt
Pt1  1.0  0.6835305708514575  0.4834161667327647  0.5013150774549523  Uiso  ?  Pt
Pt1  1.0  0.44128496895456026  0.5181694105721742  0.5022423115548224  Uiso  ?  Pt
Pt1  1.0  0.47806834048443697  0.5150967884196608  0.5353048099829416  Uiso  ?  Pt
Pt1  1.0  0.5119975391559828  0.5161059672369956  0.5717028243770467  Uiso  ?  Pt
Pt1  1.0  0.4777073387484921  0.5187384534754909  0.46232041812874813  Uiso  ?  Pt
Pt1  1.0  0.5095743388159428  0.5188088948068916  0.49798357258032594  Uiso  ?  Pt
Pt1  1.0  0.5109614743829635  0.5167206301797348  0.43031784054859396  Uiso  ?  Pt
Pt1  1.0  0.54508240661775  0.518698970406674  0.6025995873381628  Uiso  ?  Pt
Pt1  1.0  0.5448664983159208  0.5173512369965529  0.5353977497253809  Uiso  ?  Pt
Pt1  1.0  0.5824525372133905  0.5179780574282937  0.5707812693107771  Uiso  ?  Pt
Pt1  1.0  0.5441635059387299  0.5176551434106856  0.4665994003760836  Uiso  ?  Pt
Pt1  1.0  0.583944996932815  0.5176917121329423  0.5003686522728418  Uiso  ?  Pt
Pt1  1.0  0.5472929548319332  0.5163559950790355  0.3971408029560373  Uiso  ?  Pt
Pt1  1.0  0.5827324264137178  0.5138788091934531  0.4323182820213251  Uiso  ?  Pt
Pt1  1.0  0.6151264768252712  0.5177166841115763  0.532188908604964  Uiso  ?  Pt
Pt1  1.0  0.6173385124556074  0.5172426750662792  0.4630676280822274  Uiso  ?  Pt
Pt1  1.0  0.6506881131010908  0.5178211922112452  0.5002650204336033  Uiso  ?  Pt
Pt1  1.0  0.512419606943264  0.5509587346505779  0.5367740483303893  Uiso  ?  Pt
Pt1  1.0  0.4757933524963897  0.5533740039311563  0.4998196978851066  Uiso  ?  Pt
Pt1  1.0  0.5110351643349283  0.5525809294847853  0.46698795101310725  Uiso  ?  Pt
Pt1  1.0  0.5494424995085  0.5546916579762491  0.5708259003049169  Uiso  ?  Pt
Pt1  1.0  0.5823575024561002  0.5527598300291959  0.5354120550753954  Uiso  ?  Pt
Pt1  1.0  0.5468339456170221  0.5522386921400271  0.4981326109026378  Uiso  ?  Pt
Pt1  1.0  0.5814070340514658  0.5511618268034746  0.46180309542155634  Uiso  ?  Pt
Pt1  1.0  0.545278467738881  0.5522833289912491  0.4290278672399366  Uiso  ?  Pt
Pt1  1.0  0.6144019175827452  0.5494389494794506  0.499497636825328  Uiso  ?  Pt
Ce1  1.0  0.23429395299976452  0.32610716203485496  0.5920600795432759  Uiso  ?  Ce
O1  1.0  0.20844321964077697  0.3472290980781726  0.5651583894238459  Uiso  ?  O
O1  1.0  0.25815845866956816  0.3456299286644257  0.5640524102523921  Uiso  ?  O
O1  1.0  0.2591651153882902  0.3943564141761868  0.562124804953986  Uiso  ?  O
Ce1  1.0  0.18604111650601504  0.32322044563450386  0.540120594335724  Uiso  ?  Ce
Ce1  1.0  0.18902562869476044  0.37025485734174696  0.4935123149437768  Uiso  ?  Ce
Ce1  1.0  0.23639663912026984  0.32488646312114344  0.4941077228140851  Uiso  ?  Ce
Ce1  1.0  0.23599838716999494  0.36797502460678677  0.5381766112485041  Uiso  ?  Ce
O1  1.0  0.2077261669661467  0.3456295186660575  0.5192153050024432  Uiso  ?  O
O1  1.0  0.258460620115274  0.3512481833065036  0.5146703661882149  Uiso  ?  O
O1  1.0  0.2094121161133362  0.3959627620724796  0.5117914804595592  Uiso  ?  O
O1  1.0  0.25813826371903953  0.3978881609399851  0.5168002798094711  Uiso  ?  O
O1  1.0  0.2089152315358663  0.3479545323485256  0.4668609864380727  Uiso  ?  O
O1  1.0  0.25835508100973886  0.3495248335768905  0.46878868089154396  Uiso  ?  O
O1  1.0  0.20916377596212737  0.39682835656469323  0.4664481601494052  Uiso  ?  O
O1  1.0  0.25911527498803133  0.3958182860449693  0.46334341525512207  Uiso  ?  O
Ce1  1.0  0.1878377581284488  0.3271375587284419  0.4412298284131696  Uiso  ?  Ce
Ce1  1.0  0.18387871597373553  0.3735918712523065  0.3958739205690278  Uiso  ?  Ce
Ce1  1.0  0.23408081371497225  0.32394302926974605  0.39408274091168755  Uiso  ?  Ce
Ce1  1.0  0.2357208748333892  0.37408873590531877  0.44447076172738936  Uiso  ?  Ce
O1  1.0  0.2106627144332616  0.34903710684242834  0.41865850205011274  Uiso  ?  O
O1  1.0  0.25716696744214745  0.35012407854276045  0.41594496523364277  Uiso  ?  O
O1  1.0  0.21192494347567487  0.3970042385229873  0.4226152934185555  Uiso  ?  O
O1  1.0  0.25899929296744045  0.397445455399657  0.41772722031397425  Uiso  ?  O
O1  1.0  0.20895644965826898  0.34967578165046864  0.3713437280934848  Uiso  ?  O
O1  1.0  0.25965775486461273  0.3525229979425266  0.3710955989954612  Uiso  ?  O
O1  1.0  0.211523644429769  0.3967752718068317  0.37328161302974405  Uiso  ?  O
O1  1.0  0.2578284282112484  0.39503712868829  0.3732917536589139  Uiso  ?  O
Ce1  1.0  0.18570410742918583  0.32512005607786265  0.34758597455810697  Uiso  ?  Ce
Ce1  1.0  0.1821594540859682  0.3710742264318814  0.29946926603828006  Uiso  ?  Ce
Ce1  1.0  0.23064091075352863  0.32843501608535325  0.29856527104099945  Uiso  ?  Ce
Ce1  1.0  0.23351983598095757  0.3716759563305024  0.3448055944059138  Uiso  ?  Ce
O1  1.0  0.20905235490095966  0.34827914952023253  0.32233805370002866  Uiso  ?  O
O1  1.0  0.2598693930010394  0.3484281438418177  0.32625703423784985  Uiso  ?  O
O1  1.0  0.2099836949321223  0.3943782998453617  0.3205020570185076  Uiso  ?  O
O1  1.0  0.26205172790843323  0.39932096104054887  0.3234094789098838  Uiso  ?  O
O1  1.0  0.2100824516840657  0.34801616815463704  0.2750411578602736  Uiso  ?  O
O1  1.0  0.25879179534399915  0.344809114144995  0.2741891983742745  Uiso  ?  O
O1  1.0  0.2091220504322404  0.39666619209812004  0.2751570130458956  Uiso  ?  O
O1  1.0  0.25485399156467226  0.3964975112771264  0.27372266559653224  Uiso  ?  O
Ce1  1.0  0.18661292812248131  0.32708622024905887  0.24955531082789906  Uiso  ?  Ce
Ce1  1.0  0.18606827193123293  0.37165105839564455  0.20097796266527596  Uiso  ?  Ce
Ce1  1.0  0.23265699388872016  0.32515404384085034  0.20269696104625765  Uiso  ?  Ce
Ce1  1.0  0.23191027014925794  0.3745994210466507  0.25270399152481454  Uiso  ?  Ce
O1  1.0  0.21073240219107192  0.347540412680794  0.22768541904973294  Uiso  ?  O
O1  1.0  0.2588489974871507  0.3500745155760952  0.22909677776213866  Uiso  ?  O
O1  1.0  0.21447894745088508  0.39537781381100523  0.2262290835764022  Uiso  ?  O
O1  1.0  0.25841501591921645  0.398341521609582  0.2266884177341343  Uiso  ?  O
O1  1.0  0.2094246415458246  0.3506812926607164  0.18041983967667385  Uiso  ?  O
O1  1.0  0.25799745082972597  0.34928935378069176  0.17627145804400746  Uiso  ?  O
O1  1.0  0.21059485256842053  0.3971294218914731  0.180372963619456  Uiso  ?  O
O1  1.0  0.2591381023797496  0.39839253295421745  0.17833367714641435  Uiso  ?  O
Ce1  1.0  0.18687402185301058  0.32745218317352887  0.15360650775839632  Uiso  ?  Ce
Ce1  1.0  0.23262681995535348  0.3252316580941518  0.10857560387711655  Uiso  ?  Ce
Ce1  1.0  0.23292711677594605  0.3694638908784907  0.1540367027898224  Uiso  ?  Ce
O1  1.0  0.20992536355137592  0.34871768694503125  0.13060237006854458  Uiso  ?  O
O1  1.0  0.26100548499573567  0.35100332757789565  0.13050469985860144  Uiso  ?  O
O1  1.0  0.25705895182762295  0.39817812046043666  0.13173869261738758  Uiso  ?  O
O1  1.0  0.20867169447124218  0.3451776292695722  0.0841782753470668  Uiso  ?  O
O1  1.0  0.25705312527444973  0.34777921278094504  0.08260761631278209  Uiso  ?  O
O1  1.0  0.3546734077897904  0.34802810207419776  0.6593520390230844  Uiso  ?  O
Ce1  1.0  0.2831739347045668  0.373102753548752  0.5886169793587346  Uiso  ?  Ce
Ce1  1.0  0.3303621039197386  0.32403962959695065  0.5899913926978538  Uiso  ?  Ce
Ce1  1.0  0.3329462136023434  0.3706018169211171  0.6386325118763049  Uiso  ?  Ce
O1  1.0  0.30362789444338456  0.35084623199538734  0.6123905288863295  Uiso  ?  O
O1  1.0  0.35409742335681005  0.3503992876258055  0.6098789929915928  Uiso  ?  O
O1  1.0  0.3036159803853404  0.3988106815693021  0.6116365148190356  Uiso  ?  O
O1  1.0  0.35613457656281833  0.3951435382490117  0.6082678743803459  Uiso  ?  O
O1  1.0  0.30612032544792234  0.3470959553384593  0.5653023488129622  Uiso  ?  O
O1  1.0  0.35572392844930084  0.34690372505370876  0.5637857533236215  Uiso  ?  O
O1  1.0  0.3051667491474362  0.3984334666095005  0.5664752831752289  Uiso  ?  O
O1  1.0  0.3536800740531272  0.39820423438408464  0.563789143630828  Uiso  ?  O
Ce1  1.0  0.28445355799178945  0.326067577393498  0.5434990339374975  Uiso  ?  Ce
Ce1  1.0  0.2838385903598016  0.37262801268901913  0.4914026826362227  Uiso  ?  Ce
Ce1  1.0  0.32916785572009233  0.32838064979677867  0.49403710167743214  Uiso  ?  Ce
Ce1  1.0  0.3326541783281756  0.3723177834832335  0.5379273995290893  Uiso  ?  Ce
O1  1.0  0.30599793485006543  0.3495401655430607  0.5155355488189  Uiso  ?  O
O1  1.0  0.35369471238480665  0.346681430202455  0.5174948967452145  Uiso  ?  O
O1  1.0  0.30496041089819886  0.39582136043505434  0.5156720535288231  Uiso  ?  O
O1  1.0  0.3555780710871155  0.39542382970965  0.5123850264601404  Uiso  ?  O
O1  1.0  0.30740369790361516  0.34848468932995164  0.46730766460089856  Uiso  ?  O
O1  1.0  0.3513063118914245  0.34817376536238187  0.4661832383185573  Uiso  ?  O
O1  1.0  0.3071879371383533  0.3975003195216952  0.4655555746851022  Uiso  ?  O
O1  1.0  0.35370745018878136  0.3951736902103569  0.46815991988376  Uiso  ?  O
Ce1  1.0  0.28417522156440345  0.3259752502487815  0.4419925127996291  Uiso  ?  Ce
Ce1  1.0  0.28767475312816865  0.37089003392117076  0.39442014390335434  Uiso  ?  Ce
Ce1  1.0  0.33042073953806855  0.3251711180431001  0.3952220629290135  Uiso  ?  Ce
Ce1  1.0  0.3291183838946605  0.3732949189719925  0.4422526877616365  Uiso  ?  Ce
O1  1.0  0.3059393076926388  0.3475623804614893  0.41846416809296655  Uiso  ?  O
O1  1.0  0.35317598815613194  0.3467471135152307  0.41898148078349956  Uiso  ?  O
O1  1.0  0.3045703207839056  0.3980297976431176  0.41618081402670337  Uiso  ?  O
O1  1.0  0.3559796330828408  0.39684048888710616  0.41824608857261847  Uiso  ?  O
O1  1.0  0.3041030190170494  0.3492054131693667  0.3716882549193219  Uiso  ?  O
O1  1.0  0.35646890182406127  0.3500521964729859  0.37233739366912705  Uiso  ?  O
O1  1.0  0.310963310441027  0.39859220800782635  0.3674000851987787  Uiso  ?  O
O1  1.0  0.35593748516970863  0.3984956950738983  0.37001461582957973  Uiso  ?  O
Ce1  1.0  0.2819024875981071  0.32100499157030205  0.34706127058001196  Uiso  ?  Ce
Ce1  1.0  0.2820018591581399  0.37224186491258165  0.3001476847937291  Uiso  ?  Ce
Ce1  1.0  0.3295527434695417  0.323996286250207  0.2970394637964043  Uiso  ?  Ce
Ce1  1.0  0.3287238890452408  0.3733222206111258  0.34899163481112894  Uiso  ?  Ce
O1  1.0  0.30804251984994496  0.35206965854604294  0.323623771727952  Uiso  ?  O
O1  1.0  0.35696303886301384  0.3481826303589932  0.32261805389271353  Uiso  ?  O
O1  1.0  0.30593161863953244  0.3991811705452057  0.3242680806274243  Uiso  ?  O
O1  1.0  0.35350327779465646  0.3948294872910024  0.32006380823767294  Uiso  ?  O
O1  1.0  0.3091329992226895  0.348571019840342  0.27573734968079494  Uiso  ?  O
O1  1.0  0.3533937205910804  0.34767806849289334  0.27226984392350545  Uiso  ?  O
O1  1.0  0.3074664444005752  0.3958957457757676  0.2741251449394758  Uiso  ?  O
O1  1.0  0.3540590140131265  0.39871602617630136  0.27495009752072225  Uiso  ?  O
Ce1  1.0  0.28053910839353846  0.32780960557713834  0.2531503279916872  Uiso  ?  Ce
Ce1  1.0  0.28061576541351996  0.37285880801515464  0.20223610106905987  Uiso  ?  Ce
Ce1  1.0  0.32969242724845516  0.32375309815949027  0.20296603494304044  Uiso  ?  Ce
Ce1  1.0  0.3312464615243462  0.37515959857081504  0.24921357453216117  Uiso  ?  Ce
O1  1.0  0.3056040625316802  0.35040455369796863  0.22687080265788462  Uiso  ?  O
O1  1.0  0.35628018912736015  0.35104746507137224  0.22588354994695378  Uiso  ?  O
O1  1.0  0.3071600825375567  0.39725103827394687  0.2268228191528627  Uiso  ?  O
O1  1.0  0.35192711679488486  0.3992434772174451  0.2266429012006924  Uiso  ?  O
O1  1.0  0.3060647728315372  0.3500421746985612  0.17960172308263664  Uiso  ?  O
O1  1.0  0.3534987192516834  0.34919402572286734  0.17922630901757297  Uiso  ?  O
O1  1.0  0.3027937412908788  0.3966252743353436  0.1801240333169881  Uiso  ?  O
O1  1.0  0.3518752434725069  0.3978397212306717  0.17941470814134014  Uiso  ?  O
Ce1  1.0  0.27890737191371595  0.32443463996803723  0.15455630567367198  Uiso  ?  Ce
Ce1  1.0  0.2856151232490892  0.37410739412925986  0.10652270277716552  Uiso  ?  Ce
Ce1  1.0  0.3324898837153847  0.3267333444845841  0.10554223423589636  Uiso  ?  Ce
Ce1  1.0  0.33309237679127324  0.37249057314583317  0.15540579147956995  Uiso  ?  Ce
O1  1.0  0.30662340301997265  0.34971734088636214  0.13029828667091464  Uiso  ?  O
O1  1.0  0.35276566017050337  0.34977210868236147  0.12762312851284718  Uiso  ?  O
O1  1.0  0.30885828315582786  0.3967500515768751  0.1283355147368478  Uiso  ?  O
O1  1.0  0.35351071946603696  0.39926047078372073  0.12870685174801694  Uiso  ?  O
O1  1.0  0.3062691043048556  0.34943730358523883  0.08085206549402671  Uiso  ?  O
O1  1.0  0.35517605999279955  0.3499067634373522  0.0799748176108799  Uiso  ?  O
O1  1.0  0.35309976105893076  0.3959481633541331  0.0800474048087202  Uiso  ?  O
Ce1  1.0  0.4261419022531398  0.3258406886929545  0.6853219482946497  Uiso  ?  Ce
O1  1.0  0.45153916742391415  0.3463825823324518  0.7070515478401682  Uiso  ?  O
O1  1.0  0.4022975323155755  0.35083015709004334  0.6589914628280281  Uiso  ?  O
O1  1.0  0.4524973534695952  0.35189773718515543  0.6568039091371582  Uiso  ?  O
O1  1.0  0.4014555947095659  0.4000789779942794  0.6603374663243523  Uiso  ?  O
O1  1.0  0.4523535067903892  0.3962680973761357  0.6592726006919647  Uiso  ?  O
Ce1  1.0  0.3791189622353509  0.32401664854402956  0.6356486766813232  Uiso  ?  Ce
Ce1  1.0  0.3764955667906134  0.375237598528085  0.5862592084309005  Uiso  ?  Ce
Ce1  1.0  0.42790216979659346  0.3286581936810549  0.5859937521210303  Uiso  ?  Ce
Ce1  1.0  0.4257360860737293  0.37279819590125907  0.6360202874397703  Uiso  ?  Ce
O1  1.0  0.4057988201805171  0.34711563135956175  0.6109505924999589  Uiso  ?  O
O1  1.0  0.4500653762463065  0.3493964483058185  0.6136575960596196  Uiso  ?  O
O1  1.0  0.4016900027697731  0.39646650917360293  0.6142872262928442  Uiso  ?  O
O1  1.0  0.40273563870164997  0.3492160642669975  0.5635794272212034  Uiso  ?  O
O1  1.0  0.452060597684189  0.3485983402279361  0.5639325285146848  Uiso  ?  O
O1  1.0  0.45038559886266033  0.39505955948748234  0.5622517928324343  Uiso  ?  O
Ce1  1.0  0.37895588577141515  0.32332658062759767  0.5389265992767882  Uiso  ?  Ce
Ce1  1.0  0.38046988241725527  0.37239356046972716  0.4910541421378439  Uiso  ?  Ce
Ce1  1.0  0.4261320541013696  0.3248416417575607  0.49455775373839034  Uiso  ?  Ce
Ce1  1.0  0.42757775488219374  0.3744927071209185  0.5384596374464927  Uiso  ?  Ce
O1  1.0  0.4047607947995164  0.35029603624720035  0.5145220655043405  Uiso  ?  O
O1  1.0  0.44959062215319817  0.35126274752116154  0.5169781359229231  Uiso  ?  O
O1  1.0  0.40560053132750257  0.3511049087716803  0.4706197828195317  Uiso  ?  O
O1  1.0  0.45115155876474106  0.3495932446130576  0.468616656489365  Uiso  ?  O
O1  1.0  0.40350949028924066  0.39797240209574664  0.46686339004375094  Uiso  ?  O
Ce1  1.0  0.3792622549152024  0.32506029263378516  0.4429466325809231  Uiso  ?  Ce
Ce1  1.0  0.3800454919146779  0.3731793401603541  0.39712501489948876  Uiso  ?  Ce
Ce1  1.0  0.42373000510761355  0.32272045259945337  0.3989262245659609  Uiso  ?  Ce
Ce1  1.0  0.4255272371427278  0.3702123122374562  0.44439713138276027  Uiso  ?  Ce
O1  1.0  0.4044965575149412  0.35017296721095825  0.4202656223650381  Uiso  ?  O
O1  1.0  0.4495037942883409  0.34882659056687393  0.42193077421965175  Uiso  ?  O
O1  1.0  0.40421480673472415  0.35014673384705103  0.37333381984570124  Uiso  ?  O
O1  1.0  0.45317313883055327  0.34947708731623206  0.36993256875100855  Uiso  ?  O
O1  1.0  0.4013645371100416  0.39524592410036613  0.36875670784458664  Uiso  ?  O
Ce1  1.0  0.3797561039663758  0.32500456728049565  0.34867076503912686  Uiso  ?  Ce
Ce1  1.0  0.3786013699740315  0.3766064270693009  0.2955288200510236  Uiso  ?  Ce
Ce1  1.0  0.42635943413712407  0.32484367114023016  0.30079931865254445  Uiso  ?  Ce
Ce1  1.0  0.4273243381264194  0.3767231544233231  0.34677311046726683  Uiso  ?  Ce
O1  1.0  0.4033805822933154  0.34861618666231275  0.3230878833421874  Uiso  ?  O
O1  1.0  0.45048800559423846  0.34886323930690266  0.32219843632511214  Uiso  ?  O
O1  1.0  0.4040044721878057  0.3969557261829814  0.32039642231277715  Uiso  ?  O
O1  1.0  0.44744871677086123  0.3973787098066307  0.3224364980602087  Uiso  ?  O
O1  1.0  0.40594113725861514  0.34686082847130306  0.27455187426750693  Uiso  ?  O
O1  1.0  0.4544176566942748  0.35110578121316094  0.27146086160093624  Uiso  ?  O
O1  1.0  0.4000418379951455  0.3940877712883928  0.2760421350323282  Uiso  ?  O
O1  1.0  0.45234529841676946  0.39746333581119553  0.2722837017535746  Uiso  ?  O
Ce1  1.0  0.37878464233805836  0.3248245469266673  0.2480954401827467  Uiso  ?  Ce
Ce1  1.0  0.37736920516232236  0.3745956922121587  0.20059990919792214  Uiso  ?  Ce
Ce1  1.0  0.4256309355250202  0.3287056317188299  0.20340507771280078  Uiso  ?  Ce
Ce1  1.0  0.4262688627221024  0.3715303487373892  0.2531071722400445  Uiso  ?  Ce
O1  1.0  0.40451360985790136  0.3488954651437253  0.2261688705958312  Uiso  ?  O
O1  1.0  0.45151159149557835  0.34600052139021387  0.2297443215833566  Uiso  ?  O
O1  1.0  0.40527676044159017  0.39363216932957856  0.2270201587278366  Uiso  ?  O
O1  1.0  0.4529054054921908  0.39789064418727765  0.22461735005637332  Uiso  ?  O
O1  1.0  0.4022544520614659  0.34810757388869384  0.17493796254617788  Uiso  ?  O
O1  1.0  0.4505261006303076  0.3507175508679017  0.177131746738378  Uiso  ?  O
O1  1.0  0.40270575187678065  0.3968848848767328  0.17826086204169733  Uiso  ?  O
O1  1.0  0.4484688527859886  0.3978263678260694  0.17915925496525967  Uiso  ?  O
Ce1  1.0  0.3783957189032607  0.32611203751105833  0.15272871966418455  Uiso  ?  Ce
Ce1  1.0  0.3797465980468395  0.37266691238582317  0.10659044551485813  Uiso  ?  Ce
Ce1  1.0  0.4290448293976472  0.3231809500049004  0.10771613456748819  Uiso  ?  Ce
Ce1  1.0  0.426031897555495  0.36957890073231914  0.15529164614986093  Uiso  ?  Ce
O1  1.0  0.40454363748064714  0.3483236037347244  0.12789963430919765  Uiso  ?  O
O1  1.0  0.45187274047458403  0.34793343529427806  0.1297502580734673  Uiso  ?  O
O1  1.0  0.3993560989191235  0.3974950850874436  0.12931383553267378  Uiso  ?  O
O1  1.0  0.4519556147468066  0.39921313253419205  0.131279811842322  Uiso  ?  O
O1  1.0  0.4024762021330346  0.34740718755703487  0.08042739585677454  Uiso  ?  O
O1  1.0  0.4485167297820057  0.3511889323384091  0.07987433205172459  Uiso  ?  O
O1  1.0  0.40122232833225424  0.3966198262203604  0.08356414831889938  Uiso  ?  O
O1  1.0  0.4522108785241171  0.396379305399429  0.0838059946883214  Uiso  ?  O
Ce1  1.0  0.4731493992113609  0.37442639811487305  0.6823439094389028  Uiso  ?  Ce
Ce1  1.0  0.5240469727279844  0.32665035525027647  0.6847611170577834  Uiso  ?  Ce
O1  1.0  0.49947530768282244  0.3489261696318695  0.7109196752365656  Uiso  ?  O
O1  1.0  0.5467477318963913  0.3448246626724144  0.7090626909452764  Uiso  ?  O
O1  1.0  0.5000984656262486  0.34902902701724076  0.6588975612815688  Uiso  ?  O
O1  1.0  0.5465544885873027  0.3485513431175664  0.6620213991461902  Uiso  ?  O
O1  1.0  0.4999738019404362  0.3962431991043417  0.6593994971057678  Uiso  ?  O
Ce1  1.0  0.4726566244064519  0.32213390266380537  0.6346943656646354  Uiso  ?  Ce
Ce1  1.0  0.4733833136046161  0.37323708101906283  0.5888862661541995  Uiso  ?  Ce
Ce1  1.0  0.5232372495242393  0.32326907847627456  0.5874777189803434  Uiso  ?  Ce
Ce1  1.0  0.525472246268637  0.3725787927121083  0.6343317228818841  Uiso  ?  Ce
O1  1.0  0.5013464483014305  0.35083515023422235  0.6118039979165532  Uiso  ?  O
O1  1.0  0.5472060585707853  0.35226135879167436  0.6139372479954608  Uiso  ?  O
O1  1.0  0.5487472087039882  0.3975109677289795  0.6074798530350832  Uiso  ?  O
O1  1.0  0.49895179404266643  0.3485947771598622  0.5642194400807606  Uiso  ?  O
O1  1.0  0.5458964520622069  0.3487418948123768  0.563499217035314  Uiso  ?  O
Ce1  1.0  0.47621467920479693  0.3245368010820549  0.5355256807541053  Uiso  ?  Ce
Ce1  1.0  0.47314357907953675  0.3732262271153033  0.49485917034696136  Uiso  ?  Ce
Ce1  1.0  0.5265892524913391  0.32763051308463875  0.49245078753206684  Uiso  ?  Ce
Ce1  1.0  0.524277896893436  0.3744668375426085  0.5410155666996347  Uiso  ?  Ce
O1  1.0  0.4986156516021722  0.35189357149873646  0.5140827041665513  Uiso  ?  O
O1  1.0  0.5467211368741182  0.3503739741671966  0.5184271801424855  Uiso  ?  O
O1  1.0  0.5014026023485475  0.35121566637358054  0.4645137100622271  Uiso  ?  O
O1  1.0  0.5480590514048616  0.35174922565000427  0.47117183537726226  Uiso  ?  O
O1  1.0  0.546315886549008  0.39541289190328227  0.4687177087249876  Uiso  ?  O
Ce1  1.0  0.47477513368622326  0.3252433231640504  0.4398759084258738  Uiso  ?  Ce
Ce1  1.0  0.4741251316447249  0.3722038106885142  0.3940112707573605  Uiso  ?  Ce
Ce1  1.0  0.5231794604952137  0.3233534831273924  0.39598616809532566  Uiso  ?  Ce
Ce1  1.0  0.5211649342936617  0.372410085359817  0.4436466423865874  Uiso  ?  Ce
O1  1.0  0.4994899924122201  0.34552132336434876  0.41853376086244826  Uiso  ?  O
O1  1.0  0.5439028556781119  0.35059380763696074  0.4191850199031434  Uiso  ?  O
O1  1.0  0.502528264517993  0.3456413344028015  0.36894605369777705  Uiso  ?  O
O1  1.0  0.5455504399987279  0.34836116118019167  0.3698845240689758  Uiso  ?  O
Ce1  1.0  0.47339064233691563  0.3227159849416827  0.34783395908782905  Uiso  ?  Ce
Ce1  1.0  0.4758659901715568  0.373552689213032  0.30058332299587504  Uiso  ?  Ce
Ce1  1.0  0.5186131935767211  0.3261349175266864  0.29638848447174787  Uiso  ?  Ce
Ce1  1.0  0.522364172743219  0.37217383355905936  0.347481377835074  Uiso  ?  Ce
O1  1.0  0.49882804316164936  0.3484712400533449  0.32388708366531127  Uiso  ?  O
O1  1.0  0.5452385456183696  0.34770241223560644  0.32142876193171577  Uiso  ?  O
O1  1.0  0.4989120877539843  0.3966542082812003  0.3264251378563959  Uiso  ?  O
O1  1.0  0.54528495460622  0.3987482856964282  0.32520839383077416  Uiso  ?  O
O1  1.0  0.49694281244054256  0.34580374689274573  0.2754240373527453  Uiso  ?  O
O1  1.0  0.5495090032296542  0.34954383390713917  0.27471308775380343  Uiso  ?  O
O1  1.0  0.4990469522777512  0.39707507649041246  0.27527026036065827  Uiso  ?  O
O1  1.0  0.5457107155435919  0.39755780398077334  0.2767414114937871  Uiso  ?  O
Ce1  1.0  0.47326253519220873  0.32835645220970355  0.2482933630024699  Uiso  ?  Ce
Ce1  1.0  0.4692142616352924  0.37513391712528416  0.20359470920298195  Uiso  ?  Ce
Ce1  1.0  0.5212779906328237  0.3246058640067488  0.20371399884083008  Uiso  ?  Ce
Ce1  1.0  0.5210010979140863  0.3726903231671532  0.25114226371235815  Uiso  ?  Ce
O1  1.0  0.5010298046390489  0.3495300104916387  0.22563046530745537  Uiso  ?  O
O1  1.0  0.5492516525571792  0.34948349643444454  0.22768446110802318  Uiso  ?  O
O1  1.0  0.49984161382111403  0.3979236719531245  0.2263054492148871  Uiso  ?  O
O1  1.0  0.5487642276053494  0.39511672905029  0.22694374372524695  Uiso  ?  O
O1  1.0  0.4997488932987369  0.3512823044618556  0.1792349609071892  Uiso  ?  O
O1  1.0  0.5504002445276706  0.3483753853201722  0.1769151343615664  Uiso  ?  O
O1  1.0  0.4985462191485435  0.3968201269538069  0.17743029380240144  Uiso  ?  O
O1  1.0  0.5460703212759189  0.3982234878835351  0.17668424000351612  Uiso  ?  O
Ce1  1.0  0.4753406825643925  0.32194706009573076  0.15090357287673123  Uiso  ?  Ce
Ce1  1.0  0.4757899703065177  0.3718622274428748  0.10515513642110834  Uiso  ?  Ce
Ce1  1.0  0.5222092904740079  0.3263271694958712  0.10974526662387722  Uiso  ?  Ce
Ce1  1.0  0.5234398531084021  0.37309868373742666  0.15226944921398472  Uiso  ?  Ce
O1  1.0  0.5003837076298281  0.3459898737179621  0.13174635286373285  Uiso  ?  O
O1  1.0  0.5482198761047262  0.3472806384657656  0.12928074520322236  Uiso  ?  O
O1  1.0  0.5010772863008873  0.3999595104905927  0.12967594566157795  Uiso  ?  O
O1  1.0  0.5472594801216301  0.3988062239150021  0.13062495693858509  Uiso  ?  O
O1  1.0  0.5001821122360066  0.35038927695252076  0.07983416781053651  Uiso  ?  O
O1  1.0  0.5496422644733099  0.3479137943206373  0.08191263585777626  Uiso  ?  O
O1  1.0  0.4988511863612682  0.3982095861425269  0.08415759840768215  Uiso  ?  O
O1  1.0  0.5481455980635828  0.39533067441109926  0.079611540434537  Uiso  ?  O
Ce1  1.0  0.5733141751008191  0.3732396459479405  0.683094396357563  Uiso  ?  Ce
Ce1  1.0  0.6166533889529507  0.3256646265434399  0.6848194148684417  Uiso  ?  Ce
O1  1.0  0.5965224338143732  0.34861795135231005  0.7070665561463799  Uiso  ?  O
O1  1.0  0.6423401430469129  0.3492771455230669  0.708289389423239  Uiso  ?  O
O1  1.0  0.5948122387900614  0.34976963418609763  0.6617846871449582  Uiso  ?  O
O1  1.0  0.6442315282739246  0.34999914981879554  0.6630332163984674  Uiso  ?  O
O1  1.0  0.6426211657867649  0.39636420167128994  0.6635729672251257  Uiso  ?  O
Ce1  1.0  0.5716883076847981  0.32763225375541516  0.6366814203323979  Uiso  ?  Ce
Ce1  1.0  0.5688689166286627  0.373629469247221  0.5876896924924025  Uiso  ?  Ce
Ce1  1.0  0.6175309092638929  0.3208257392521566  0.590778835547522  Uiso  ?  Ce
Ce1  1.0  0.6172160255464175  0.3716602280801409  0.6334967342597971  Uiso  ?  Ce
O1  1.0  0.5960543069561811  0.34785941844961354  0.6102560716789743  Uiso  ?  O
O1  1.0  0.6397052418947384  0.3508177807576581  0.6090574102644699  Uiso  ?  O
O1  1.0  0.5944965075652894  0.34845907703414997  0.5630422499955546  Uiso  ?  O
O1  1.0  0.6429683332924687  0.3466444611934148  0.562503787484266  Uiso  ?  O
O1  1.0  0.6478660216749934  0.39816887843227416  0.5657261396122107  Uiso  ?  O
Ce1  1.0  0.5699517840934032  0.32317980623817166  0.5409925623049772  Uiso  ?  Ce
Ce1  1.0  0.5689488447063537  0.3736413299067254  0.486908573633314  Uiso  ?  Ce
Ce1  1.0  0.6181746222778104  0.32380274665251074  0.49123070958346254  Uiso  ?  Ce
Ce1  1.0  0.619802153470069  0.37532909461391517  0.5383116998433987  Uiso  ?  Ce
O1  1.0  0.5965188083088443  0.35202326752472785  0.5163630668900756  Uiso  ?  O
O1  1.0  0.6422756887798587  0.3524583231889788  0.5177574768750615  Uiso  ?  O
O1  1.0  0.5935018660324101  0.34710827315279463  0.4689199531272359  Uiso  ?  O
O1  1.0  0.6440277201035028  0.34813604528567127  0.4658382718593423  Uiso  ?  O
Ce1  1.0  0.5720676354787426  0.3241908283987262  0.44223619498375416  Uiso  ?  Ce
Ce1  1.0  0.5748761418964842  0.372548144001268  0.3950906159371672  Uiso  ?  Ce
Ce1  1.0  0.6224359100148885  0.3211428866782788  0.39627307299706205  Uiso  ?  Ce
Ce1  1.0  0.6184902504579041  0.37287734064352535  0.44648899359807714  Uiso  ?  Ce
O1  1.0  0.5931273727624854  0.3508445428199384  0.41876316914434963  Uiso  ?  O
O1  1.0  0.6422097453027323  0.3505519773656741  0.4209609678423296  Uiso  ?  O
O1  1.0  0.5997376730610868  0.3499736189937096  0.37219015454886356  Uiso  ?  O
O1  1.0  0.646062834112674  0.34735512858174006  0.37138572498153255  Uiso  ?  O
Ce1  1.0  0.5718554325590373  0.3272160676758366  0.34443181983898014  Uiso  ?  Ce
Ce1  1.0  0.571290935923733  0.37220885686660476  0.2969193583015035  Uiso  ?  Ce
Ce1  1.0  0.618603151896861  0.32181298086692894  0.30096469565617806  Uiso  ?  Ce
Ce1  1.0  0.6176479494020815  0.37476535152022034  0.3474020798824761  Uiso  ?  Ce
O1  1.0  0.5950740344086128  0.34799184138446043  0.3203407836972151  Uiso  ?  O
O1  1.0  0.6423502599014679  0.3469297145519324  0.32056612781267385  Uiso  ?  O
O1  1.0  0.596709437097727  0.39592767012114366  0.3203281001179648  Uiso  ?  O
O1  1.0  0.6436989677098172  0.3989418181407544  0.31907923389328063  Uiso  ?  O
O1  1.0  0.5957597237483518  0.3487888027072648  0.27308683629084346  Uiso  ?  O
O1  1.0  0.645133029023374  0.34971304459539804  0.27190321087864516  Uiso  ?  O
O1  1.0  0.5967170232464217  0.3975549788588103  0.2776151028172056  Uiso  ?  O
O1  1.0  0.6419129867255597  0.3959369749020945  0.27615100719202007  Uiso  ?  O
Ce1  1.0  0.5688891702001436  0.32143130953200993  0.2494429211741069  Uiso  ?  Ce
Ce1  1.0  0.5733332671638433  0.37037300500865716  0.19950757557158527  Uiso  ?  Ce
Ce1  1.0  0.6213283390528316  0.3236401849100737  0.201890110117491  Uiso  ?  Ce
Ce1  1.0  0.6174363261945371  0.37564699752492314  0.2523390279752426  Uiso  ?  Ce
O1  1.0  0.596462144998498  0.3482461441590706  0.22535559044340145  Uiso  ?  O
O1  1.0  0.6446325602504359  0.347706143084457  0.22699492621600345  Uiso  ?  O
O1  1.0  0.5940949509446111  0.3953989962645666  0.22707306970368757  Uiso  ?  O
O1  1.0  0.6462208797008046  0.395818466002261  0.22473828886944258  Uiso  ?  O
O1  1.0  0.5982311242187689  0.3465890781985405  0.1798221533772989  Uiso  ?  O
O1  1.0  0.645754463641778  0.34850321251382865  0.17761819636588969  Uiso  ?  O
O1  1.0  0.5928032288342497  0.3981587328211771  0.18144675667734558  Uiso  ?  O
O1  1.0  0.6469071781156389  0.3997923083470482  0.17939257426216054  Uiso  ?  O
Ce1  1.0  0.5710271821784586  0.32422050016162796  0.15395492769342237  Uiso  ?  Ce
Ce1  1.0  0.5732330042603777  0.37134295431886566  0.10615188152860189  Uiso  ?  Ce
Ce1  1.0  0.6211885014714484  0.3252570735530791  0.10395277193573942  Uiso  ?  Ce
Ce1  1.0  0.6217364479256273  0.3724598032802576  0.15084416297021697  Uiso  ?  Ce
O1  1.0  0.5938126990739956  0.34819605108799695  0.12739774607854829  Uiso  ?  O
O1  1.0  0.6455987228929233  0.3482966150784981  0.13088565710685873  Uiso  ?  O
O1  1.0  0.5938119401893421  0.3969997581140743  0.13072901163058465  Uiso  ?  O
O1  1.0  0.6434758905845166  0.39717069627589024  0.12912801053592454  Uiso  ?  O
O1  1.0  0.5961101835538427  0.3475651309044466  0.08222138851239923  Uiso  ?  O
O1  1.0  0.6427422931414614  0.35106985952274644  0.08071755519666005  Uiso  ?  O
O1  1.0  0.5976247724856343  0.3944670339142996  0.08264795814365634  Uiso  ?  O
O1  1.0  0.6429261301440541  0.39715353877956305  0.08205866344282263  Uiso  ?  O
Ce1  1.0  0.6672029158835386  0.3737490344402151  0.6827346718388658  Uiso  ?  Ce
Ce1  1.0  0.7183194529952238  0.3254412641087947  0.6836423456676075  Uiso  ?  Ce
O1  1.0  0.6927117976447862  0.34846918981339897  0.6630466075614323  Uiso  ?  O
O1  1.0  0.6918074105288075  0.39797182430074507  0.6611649266067534  Uiso  ?  O
Ce1  1.0  0.6651082163758884  0.32585332221275826  0.632778882924084  Uiso  ?  Ce
Ce1  1.0  0.6674391477255531  0.37428100533315717  0.5905610786544886  Uiso  ?  Ce
Ce1  1.0  0.7174195337226535  0.32457088388129385  0.5846143196116683  Uiso  ?  Ce
Ce1  1.0  0.7126407467372079  0.3712847933040212  0.6382926507133908  Uiso  ?  Ce
O1  1.0  0.6923252520059868  0.3482460033007467  0.6124499440149059  Uiso  ?  O
O1  1.0  0.7404938351123378  0.3518819602803464  0.613632071548789  Uiso  ?  O
O1  1.0  0.6909528407796692  0.3981033803116536  0.6140987130537733  Uiso  ?  O
O1  1.0  0.7395754554737122  0.3964239911883409  0.6106019804942799  Uiso  ?  O
O1  1.0  0.6931719140676762  0.34970926644377953  0.5621430925772377  Uiso  ?  O
O1  1.0  0.7401927505869734  0.35053889886755296  0.5595275553132228  Uiso  ?  O
O1  1.0  0.7413915305063146  0.3974936941041244  0.564659014498066  Uiso  ?  O
Ce1  1.0  0.6705045522668079  0.3247400424145768  0.5399270943238398  Uiso  ?  Ce
Ce1  1.0  0.6665479549882621  0.3726167897060537  0.49054252540713716  Uiso  ?  Ce
Ce1  1.0  0.7156908872265954  0.3255452494500647  0.49254618357600133  Uiso  ?  Ce
Ce1  1.0  0.7141332251607456  0.37428514638540294  0.5416665763993003  Uiso  ?  Ce
O1  1.0  0.6898797385520242  0.34454658367654445  0.5169204227070658  Uiso  ?  O
O1  1.0  0.7401334607162438  0.35106363845474936  0.5177515809060345  Uiso  ?  O
O1  1.0  0.7406576903130795  0.3977278824272864  0.5160310816630641  Uiso  ?  O
O1  1.0  0.6894781720812242  0.3515654565429168  0.468157018470615  Uiso  ?  O
O1  1.0  0.7384125975440294  0.34576805346393935  0.46700028923908604  Uiso  ?  O
O1  1.0  0.6891535640216113  0.39811568771845557  0.4682712586081096  Uiso  ?  O
O1  1.0  0.7375158936247538  0.3974613350773675  0.4682460963257746  Uiso  ?  O
Ce1  1.0  0.6698952233676646  0.3232731161010252  0.4408088556194848  Uiso  ?  Ce
Ce1  1.0  0.6687119168236522  0.37221936825232044  0.3933141434170229  Uiso  ?  Ce
Ce1  1.0  0.7172068332739702  0.32289906828257847  0.39396919899875704  Uiso  ?  Ce
Ce1  1.0  0.7125945960801193  0.37406782698208274  0.4438681078879121  Uiso  ?  Ce
O1  1.0  0.690199170099062  0.3493575695656539  0.41966661907398023  Uiso  ?  O
O1  1.0  0.7409789750319999  0.34946121220960097  0.41877541693088194  Uiso  ?  O
O1  1.0  0.7395663040870519  0.39485637523077305  0.42026742207092177  Uiso  ?  O
O1  1.0  0.6910723021323092  0.34673023817926996  0.3691685366292319  Uiso  ?  O
O1  1.0  0.7420520031902342  0.34615353289838935  0.3691675936846833  Uiso  ?  O
O1  1.0  0.6934969466303111  0.39545213461176804  0.3736682587344569  Uiso  ?  O
O1  1.0  0.7453796629591491  0.3965522871154819  0.3711456676933359  Uiso  ?  O
Ce1  1.0  0.6669648094192658  0.3239869256673162  0.34788223789663686  Uiso  ?  Ce
Ce1  1.0  0.6702775872752244  0.3747821080987078  0.29771724038218  Uiso  ?  Ce
Ce1  1.0  0.7152558957431719  0.32400857860888616  0.30067391862733667  Uiso  ?  Ce
Ce1  1.0  0.7154549804018052  0.3718352439227504  0.34476636116636844  Uiso  ?  Ce
O1  1.0  0.6929802282981149  0.3515313665642945  0.3249788728493069  Uiso  ?  O
O1  1.0  0.7377545017326194  0.3492203646581222  0.3198794877012839  Uiso  ?  O
O1  1.0  0.6891792065359009  0.3980090316759223  0.3242304027631865  Uiso  ?  O
O1  1.0  0.7403761021498928  0.39762987631520863  0.322972208593266  Uiso  ?  O
O1  1.0  0.6936771123980042  0.3485640519321152  0.2748170635704583  Uiso  ?  O
O1  1.0  0.7370251213855608  0.3492126946487992  0.2752284453772912  Uiso  ?  O
O1  1.0  0.6936239645613912  0.3958108395761104  0.27334264534467395  Uiso  ?  O
O1  1.0  0.7389942100560416  0.39740160012072673  0.2724835789874747  Uiso  ?  O
Ce1  1.0  0.6714346398356705  0.326322994333974  0.24701563447716782  Uiso  ?  Ce
Ce1  1.0  0.6650358455823903  0.37305883100150794  0.20258809689857096  Uiso  ?  Ce
Ce1  1.0  0.7167960891707962  0.3240822976872226  0.203979392725842  Uiso  ?  Ce
Ce1  1.0  0.7159545457139158  0.37141614496185194  0.24975990938664083  Uiso  ?  Ce
O1  1.0  0.6939580730002687  0.3484772093577065  0.23009913026603993  Uiso  ?  O
O1  1.0  0.7409029347976445  0.3481566561394793  0.2271210866998672  Uiso  ?  O
O1  1.0  0.689620437972266  0.39978769966806804  0.22467639072364332  Uiso  ?  O
O1  1.0  0.7380944043762842  0.40120402023883267  0.2274268385518002  Uiso  ?  O
O1  1.0  0.6905365334241473  0.347458152693185  0.17689798726850472  Uiso  ?  O
O1  1.0  0.7413283868119094  0.3460211625558322  0.1785380734532398  Uiso  ?  O
O1  1.0  0.692736997566953  0.3968507506116135  0.17990811842839846  Uiso  ?  O
O1  1.0  0.7388243972709535  0.3993082904482522  0.17716476577579734  Uiso  ?  O
Ce1  1.0  0.6678394067955774  0.3233207898838078  0.15361249130122545  Uiso  ?  Ce
Ce1  1.0  0.669101184940019  0.3731797099871882  0.10463660391410479  Uiso  ?  Ce
Ce1  1.0  0.7171743749759502  0.32207511215916584  0.10831927447482823  Uiso  ?  Ce
Ce1  1.0  0.718788601885492  0.37429394018110423  0.15208872331164605  Uiso  ?  Ce
O1  1.0  0.6918061115427828  0.3510704946688238  0.1323844600585367  Uiso  ?  O
O1  1.0  0.7411895987403065  0.3505076193752045  0.1307844229731802  Uiso  ?  O
O1  1.0  0.6892511802370209  0.3952175165706108  0.13108833774159642  Uiso  ?  O
O1  1.0  0.7406398976362049  0.39963925863025807  0.13128575649962224  Uiso  ?  O
O1  1.0  0.6929990783692537  0.35176160208025237  0.08110269168497655  Uiso  ?  O
O1  1.0  0.7374556673858004  0.34999690323941884  0.08205828077541434  Uiso  ?  O
O1  1.0  0.6952297031339458  0.39657259792805777  0.08371062221237786  Uiso  ?  O
Ce1  1.0  0.7636007536595488  0.3235453037989095  0.6357233412121166  Uiso  ?  Ce
Ce1  1.0  0.7597875834908054  0.371214851601862  0.5874656543008604  Uiso  ?  Ce
Ce1  1.0  0.8124147184138821  0.3230779374054932  0.5877781767898774  Uiso  ?  Ce
O1  1.0  0.7900947771163676  0.3486328146641623  0.5622861184026808  Uiso  ?  O
Ce1  1.0  0.7632786338523833  0.32547770328623404  0.5399061709255019  Uiso  ?  Ce
Ce1  1.0  0.7642779666690983  0.3707994797036143  0.4887283847984596  Uiso  ?  Ce
Ce1  1.0  0.8118726247194755  0.32173637789245196  0.49220722714489373  Uiso  ?  Ce
O1  1.0  0.7856994635681456  0.3496186700866608  0.5185871852195063  Uiso  ?  O
O1  1.0  0.7866940261732263  0.39603641446957916  0.5168651705772205  Uiso  ?  O
O1  1.0  0.7857476440406701  0.3485113379430276  0.47029219824860286  Uiso  ?  O
O1  1.0  0.7879708485720063  0.3988353312603295  0.4668204461122317  Uiso  ?  O
Ce1  1.0  0.7632413708714398  0.32206150654726484  0.4468150687533062  Uiso  ?  Ce
Ce1  1.0  0.7635691553852783  0.3688049941813538  0.39412309287201375  Uiso  ?  Ce
Ce1  1.0  0.8143963772658788  0.3258451988879552  0.39653692813690034  Uiso  ?  Ce
Ce1  1.0  0.8127823468238342  0.37291118921745253  0.4400059072100141  Uiso  ?  Ce
O1  1.0  0.7900338189273703  0.3505453105906247  0.4168020733129389  Uiso  ?  O
O1  1.0  0.7893537339974963  0.3988986738077767  0.41790334531713064  Uiso  ?  O
O1  1.0  0.7871716840003986  0.34898883561922744  0.3682506717130834  Uiso  ?  O
O1  1.0  0.7908989731967901  0.39614578153466606  0.3698581502984245  Uiso  ?  O
Ce1  1.0  0.7604148702272233  0.32243916903350783  0.3469086326717051  Uiso  ?  Ce
Ce1  1.0  0.7624703950791032  0.3730778681164837  0.29718250388348105  Uiso  ?  Ce
Ce1  1.0  0.8123447731401195  0.32684959411789233  0.2962866252849476  Uiso  ?  Ce
Ce1  1.0  0.8094113051023261  0.37155480996978035  0.344320165233427  Uiso  ?  Ce
O1  1.0  0.7853417365771848  0.3519401643103191  0.3259368660817936  Uiso  ?  O
O1  1.0  0.792060960465536  0.3973966167649657  0.3216663041585551  Uiso  ?  O
O1  1.0  0.7866974551177626  0.34754836630246316  0.2763548661840492  Uiso  ?  O
O1  1.0  0.7901508652596513  0.3975616520022989  0.277275843939684  Uiso  ?  O
Ce1  1.0  0.7663166279789708  0.32413930522915585  0.24854992046793664  Uiso  ?  Ce
Ce1  1.0  0.7629430495549151  0.37320847111801403  0.20191115538107263  Uiso  ?  Ce
Ce1  1.0  0.8154658897588863  0.32417004438279307  0.2023103850115926  Uiso  ?  Ce
Ce1  1.0  0.8109475217376735  0.3739987495723153  0.25143640346016544  Uiso  ?  Ce
O1  1.0  0.7902911436927463  0.34957644662573306  0.22752781389966756  Uiso  ?  O
O1  1.0  0.7879414076144964  0.3991929160157497  0.22519816073625804  Uiso  ?  O
O1  1.0  0.7895400141442097  0.3480000993882497  0.17824532155852807  Uiso  ?  O
O1  1.0  0.7860454861409293  0.39524539096190947  0.17943871792800178  Uiso  ?  O
Ce1  1.0  0.7630688471518974  0.326665225588064  0.15565531708295433  Uiso  ?  Ce
Ce1  1.0  0.7661463444393298  0.37077213835828937  0.1064873866746635  Uiso  ?  Ce
Ce1  1.0  0.8105151057375928  0.3723317006507487  0.15576816137755323  Uiso  ?  Ce
O1  1.0  0.7879503441064036  0.3494220414274407  0.128104382068816  Uiso  ?  O
O1  1.0  0.7880338097934783  0.3966517691211105  0.12634834017829333  Uiso  ?  O
Ce1  1.0  0.23648003427198608  0.23091902793723257  0.6870672980655946  Uiso  ?  Ce
O1  1.0  0.25426685193629384  0.25264037798915706  0.7084756448872257  Uiso  ?  O
O1  1.0  0.20904762655441286  0.2532189114457488  0.6612924191720644  Uiso  ?  O
O1  1.0  0.2574712848922477  0.2535825592829691  0.6581470688467069  Uiso  ?  O
Ce1  1.0  0.1862924184682589  0.22684427939416685  0.6360838570301636  Uiso  ?  Ce
Ce1  1.0  0.18709802315187193  0.2771973585566256  0.590684570470599  Uiso  ?  Ce
Ce1  1.0  0.23721192401083285  0.22953346840234015  0.5859957713543431  Uiso  ?  Ce
Ce1  1.0  0.23252168039660587  0.2755204378941623  0.6375661551730569  Uiso  ?  Ce
O1  1.0  0.2142034363319681  0.25220297103881434  0.6143495470226022  Uiso  ?  O
O1  1.0  0.25900161130503546  0.25266271225152387  0.6123588998827832  Uiso  ?  O
O1  1.0  0.21019015179377187  0.30045635542383464  0.6130610895750236  Uiso  ?  O
O1  1.0  0.25940513315467556  0.29719514491837135  0.6088558409029009  Uiso  ?  O
O1  1.0  0.21015496782940346  0.2529215403068806  0.5636474056564846  Uiso  ?  O
O1  1.0  0.25786424010730336  0.2500802686145953  0.564461394499821  Uiso  ?  O
O1  1.0  0.21284211811222073  0.29902592307968046  0.5633004321645702  Uiso  ?  O
O1  1.0  0.25744230073590074  0.30358024381160253  0.560495704578017  Uiso  ?  O
Ce1  1.0  0.18646563537263203  0.2295609437873834  0.5400780333934443  Uiso  ?  Ce
Ce1  1.0  0.1862166163615101  0.2772133322282886  0.4926061646866207  Uiso  ?  Ce
Ce1  1.0  0.23433600410251004  0.23039332054236913  0.49167930107075647  Uiso  ?  Ce
Ce1  1.0  0.2328243641885172  0.27595816217302965  0.5422085922694105  Uiso  ?  Ce
O1  1.0  0.21143001145279053  0.25340283232090627  0.5150838888040852  Uiso  ?  O
O1  1.0  0.2584949350091163  0.25216056078076504  0.5159828497506715  Uiso  ?  O
O1  1.0  0.20756953825700797  0.3028609393138954  0.5156164416832508  Uiso  ?  O
O1  1.0  0.25479794856336285  0.30108097728713273  0.518188301597737  Uiso  ?  O
O1  1.0  0.2128901153434067  0.25359518753092036  0.4672520879891246  Uiso  ?  O
O1  1.0  0.2571522609334455  0.25843061361595643  0.46978566154137336  Uiso  ?  O
O1  1.0  0.2100433912354037  0.3022628746918627  0.4667439963179838  Uiso  ?  O
O1  1.0  0.26165210142335  0.30023971103668007  0.46468983407285325  Uiso  ?  O
Ce1  1.0  0.1872545974641476  0.22511819785544449  0.44250391654676186  Uiso  ?  Ce
Ce1  1.0  0.18579434240455842  0.27448226410159626  0.40022638277317185  Uiso  ?  Ce
Ce1  1.0  0.23520956396835369  0.22839731677769481  0.39376396358312526  Uiso  ?  Ce
Ce1  1.0  0.23244341638493116  0.27655088723138926  0.4441913685428078  Uiso  ?  Ce
O1  1.0  0.2128374629468061  0.2531748608270106  0.4198335868576237  Uiso  ?  O
O1  1.0  0.2575093016969009  0.251295882261323  0.41634235322538965  Uiso  ?  O
O1  1.0  0.2120661555408405  0.29774608582561846  0.4168930328569001  Uiso  ?  O
O1  1.0  0.2598309013371744  0.3017906747132141  0.4151989574435782  Uiso  ?  O
O1  1.0  0.210148779602583  0.25171946331963235  0.3769999326749113  Uiso  ?  O
O1  1.0  0.26199149529464655  0.253498613430726  0.3705611509770668  Uiso  ?  O
O1  1.0  0.2128238463135966  0.3025205743736804  0.37175940318338174  Uiso  ?  O
O1  1.0  0.25840466488572866  0.3004933310817573  0.36956351703459683  Uiso  ?  O
Ce1  1.0  0.18798631661443618  0.22888318657797618  0.34599606194729615  Uiso  ?  Ce
Ce1  1.0  0.18584060085891588  0.2800543721414016  0.29788142189028066  Uiso  ?  Ce
Ce1  1.0  0.23298981733722413  0.22645176660801072  0.29920686660903895  Uiso  ?  Ce
Ce1  1.0  0.23226749195430485  0.2771335595631653  0.34803292981174694  Uiso  ?  Ce
O1  1.0  0.21016691841305077  0.2543819223167774  0.32092722149771635  Uiso  ?  O
O1  1.0  0.2610605659483827  0.2509767477206214  0.3198952345648314  Uiso  ?  O
O1  1.0  0.2103769838392569  0.30145060977187854  0.32346288736067264  Uiso  ?  O
O1  1.0  0.2580153147499312  0.30104077561590564  0.3202313429300815  Uiso  ?  O
O1  1.0  0.2080352565588825  0.2507913408480537  0.2751261300735879  Uiso  ?  O
O1  1.0  0.2595823492364166  0.25382174912712635  0.27500093714641305  Uiso  ?  O
O1  1.0  0.20607227442465134  0.30031721363932506  0.27441570607814214  Uiso  ?  O
O1  1.0  0.25686469934091444  0.299141639235767  0.2706480679787686  Uiso  ?  O
Ce1  1.0  0.18788628081201555  0.22691317628895682  0.2537687521092499  Uiso  ?  Ce
Ce1  1.0  0.18369464186016016  0.27583318730550327  0.2026895198668792  Uiso  ?  Ce
Ce1  1.0  0.2364966534391919  0.23078170506575596  0.20081550431171805  Uiso  ?  Ce
Ce1  1.0  0.23514372417213278  0.2776369937909331  0.248313261741737  Uiso  ?  Ce
O1  1.0  0.21032201570027823  0.25212718826224884  0.22655450107238742  Uiso  ?  O
O1  1.0  0.2576123287197404  0.24983145001618637  0.22638023270538185  Uiso  ?  O
O1  1.0  0.20995883529831774  0.2987945150263076  0.2283742475485173  Uiso  ?  O
O1  1.0  0.256163570174309  0.29972585780093725  0.2259412647113503  Uiso  ?  O
O1  1.0  0.21058999743637263  0.25276477562873334  0.1785384183246914  Uiso  ?  O
O1  1.0  0.25934105281121467  0.25127809852549676  0.1753905973900822  Uiso  ?  O
O1  1.0  0.20981241378326826  0.3040664421568667  0.18070437289573335  Uiso  ?  O
O1  1.0  0.2609073733570639  0.29989540921159824  0.1786145573900217  Uiso  ?  O
Ce1  1.0  0.18571694365129238  0.22949273515595933  0.15565002462092603  Uiso  ?  Ce
Ce1  1.0  0.18713547998877172  0.27758402966977663  0.10492761708908718  Uiso  ?  Ce
Ce1  1.0  0.22961487970375796  0.2290126018770903  0.1073057653870445  Uiso  ?  Ce
Ce1  1.0  0.23283059413939627  0.2783874026340361  0.15247437979320386  Uiso  ?  Ce
O1  1.0  0.20854782785492226  0.2514679680915074  0.12990424968195818  Uiso  ?  O
O1  1.0  0.2599068643769447  0.253412573298807  0.12666639409229266  Uiso  ?  O
O1  1.0  0.21232517756664132  0.3021223543673438  0.12992698413789644  Uiso  ?  O
O1  1.0  0.25701464269607666  0.29948813265405533  0.12741836262741413  Uiso  ?  O
O1  1.0  0.21062103180714964  0.2513442629334332  0.08674055453572699  Uiso  ?  O
O1  1.0  0.25559994272200964  0.25274370831706955  0.08105989021504892  Uiso  ?  O
O1  1.0  0.2123933626368833  0.3002243449140537  0.08121111314585122  Uiso  ?  O
O1  1.0  0.26025356005107997  0.3041581522578093  0.0819723820808926  Uiso  ?  O
Ce1  1.0  0.33181651260163875  0.2282783195898816  0.7818314518490903  Uiso  ?  Ce
O1  1.0  0.3527521044979864  0.25352619589579545  0.8000779748750432  Uiso  ?  O
O1  1.0  0.3049554735139707  0.25126893075430073  0.7546810030693387  Uiso  ?  O
O1  1.0  0.3537744652256076  0.25189717202292616  0.7567876700081783  Uiso  ?  O
Ce1  1.0  0.282277279661216  0.226838314321555  0.7306776291621251  Uiso  ?  Ce
Ce1  1.0  0.28461255451583295  0.27785223471428866  0.6817097355643421  Uiso  ?  Ce
Ce1  1.0  0.32766798597852603  0.2277461277419776  0.6837820300222214  Uiso  ?  Ce
Ce1  1.0  0.32823152433573605  0.27736860822818016  0.7318446049670357  Uiso  ?  Ce
O1  1.0  0.3068044675460373  0.25284502095956  0.7089617813721136  Uiso  ?  O
O1  1.0  0.35179489017266996  0.25261137903844316  0.7066425727220648  Uiso  ?  O
O1  1.0  0.35470905679150116  0.30082345387187664  0.7074594523684766  Uiso  ?  O
O1  1.0  0.30470746283863476  0.2524581596403926  0.6609299696901348  Uiso  ?  O
O1  1.0  0.3531727616873838  0.2522191917035454  0.6583001168821228  Uiso  ?  O
O1  1.0  0.3058911746331171  0.30291408887791893  0.6638264761904958  Uiso  ?  O
O1  1.0  0.3534471822644129  0.2971730172112453  0.6597487460667288  Uiso  ?  O
Ce1  1.0  0.281023144664203  0.22635188801200393  0.6380731695570203  Uiso  ?  Ce
Ce1  1.0  0.28290954632744786  0.2779228355833877  0.5881360689237723  Uiso  ?  Ce
Ce1  1.0  0.33176448310960693  0.2272206288891719  0.5868406567069275  Uiso  ?  Ce
Ce1  1.0  0.3317685222961193  0.2743623982999499  0.6353046189256978  Uiso  ?  Ce
O1  1.0  0.3087475227381445  0.25421034658807506  0.608532840028167  Uiso  ?  O
O1  1.0  0.3549893823856876  0.2515720375103183  0.6098263979362948  Uiso  ?  O
O1  1.0  0.30985292580884327  0.302468268722449  0.6109451373025466  Uiso  ?  O
O1  1.0  0.3530032468603121  0.3021983855837081  0.6146204557854914  Uiso  ?  O
O1  1.0  0.30976170054516444  0.25125532441052617  0.5647450592150735  Uiso  ?  O
O1  1.0  0.3508092921159088  0.25235260066605086  0.5610850857835867  Uiso  ?  O
O1  1.0  0.30790946630458  0.3016358982111915  0.5661737429143578  Uiso  ?  O
O1  1.0  0.35602485926126703  0.2990635235297508  0.5625960455119704  Uiso  ?  O
Ce1  1.0  0.27868975844539634  0.23001609661513991  0.538560503843527  Uiso  ?  Ce
Ce1  1.0  0.28048166624429016  0.27752751027855116  0.4926439199361454  Uiso  ?  Ce
Ce1  1.0  0.33265775622463123  0.22767415178400996  0.4909270068891193  Uiso  ?  Ce
Ce1  1.0  0.3305561212609166  0.2739968621675804  0.5365556722935562  Uiso  ?  Ce
O1  1.0  0.3073457905055961  0.25102926700188216  0.5146994868498194  Uiso  ?  O
O1  1.0  0.35297114680722863  0.2529503470487634  0.5156917806265199  Uiso  ?  O
O1  1.0  0.3075639721788219  0.2988418018537191  0.5125166624589156  Uiso  ?  O
O1  1.0  0.3534846781166525  0.30140538569236286  0.5144443529432662  Uiso  ?  O
O1  1.0  0.3069049945602819  0.252772624469674  0.4687562025348437  Uiso  ?  O
O1  1.0  0.3560629436280696  0.2523677226608853  0.46784415263931894  Uiso  ?  O
O1  1.0  0.3052264702005524  0.29830934835961004  0.46650703986807796  Uiso  ?  O
O1  1.0  0.3552452476349913  0.30114619038132734  0.46814955053966134  Uiso  ?  O
Ce1  1.0  0.28345036497846504  0.2293209207668641  0.44582059896443527  Uiso  ?  Ce
Ce1  1.0  0.28056426391236644  0.2770125066174598  0.3978537754473602  Uiso  ?  Ce
Ce1  1.0  0.32925605507658656  0.2247431357959131  0.3917599607001227  Uiso  ?  Ce
Ce1  1.0  0.33096354430411207  0.27554048172803297  0.4415270682163114  Uiso  ?  Ce
O1  1.0  0.308934400303878  0.2527543699103257  0.4171690290597899  Uiso  ?  O
O1  1.0  0.3565402028503859  0.2532052150756592  0.4197621622502815  Uiso  ?  O
O1  1.0  0.308401541009961  0.29823416268327535  0.4195476865031486  Uiso  ?  O
O1  1.0  0.3523247369533103  0.3006509690408816  0.41860539495441723  Uiso  ?  O
O1  1.0  0.3051563676531313  0.2522112818975674  0.36797913785979536  Uiso  ?  O
O1  1.0  0.35640742900714445  0.2545529226928239  0.3708703605211624  Uiso  ?  O
O1  1.0  0.3033053205902783  0.302696430214836  0.37136412674894453  Uiso  ?  O
O1  1.0  0.35834896621507073  0.29824343247242396  0.36907819553309434  Uiso  ?  O
Ce1  1.0  0.27883755014638995  0.2314836790251713  0.34570320702766144  Uiso  ?  Ce
Ce1  1.0  0.2827938463544525  0.2781098129755132  0.29883282300002195  Uiso  ?  Ce
Ce1  1.0  0.3271808624663262  0.22518809994712718  0.2991061163180707  Uiso  ?  Ce
Ce1  1.0  0.32900254720386746  0.2770083402532591  0.3445748020191828  Uiso  ?  Ce
O1  1.0  0.3066428065158335  0.2503634296846091  0.32178163433430146  Uiso  ?  O
O1  1.0  0.3558629737478268  0.2524253017933097  0.32591114983870845  Uiso  ?  O
O1  1.0  0.30562978014236913  0.3004974797940047  0.3241231801857108  Uiso  ?  O
O1  1.0  0.3563458200202984  0.30056865302213864  0.32405709406323463  Uiso  ?  O
O1  1.0  0.30700815975529977  0.2520293237820091  0.277045666075828  Uiso  ?  O
O1  1.0  0.35296447517475554  0.2536580044326061  0.2719649734006072  Uiso  ?  O
O1  1.0  0.30966880689452003  0.30204457582518857  0.2759334983127801  Uiso  ?  O
O1  1.0  0.3550524451846414  0.3028826338392941  0.27260056545858413  Uiso  ?  O
Ce1  1.0  0.27939545820810574  0.2289805360178591  0.24963556802289794  Uiso  ?  Ce
Ce1  1.0  0.2788740801986603  0.2779426560917244  0.202497366931253  Uiso  ?  Ce
Ce1  1.0  0.3285059356679666  0.22765601722143478  0.20385872287649945  Uiso  ?  Ce
Ce1  1.0  0.330735255655467  0.2750036608859871  0.24857180336329046  Uiso  ?  Ce
O1  1.0  0.30683802620597833  0.24919769915151882  0.22750784489890702  Uiso  ?  O
O1  1.0  0.35582585419401247  0.2557123150639178  0.2285671083641004  Uiso  ?  O
O1  1.0  0.30641750107718707  0.2998073594459438  0.22544251197642276  Uiso  ?  O
O1  1.0  0.35330213619372747  0.2997059111906085  0.22494307560440896  Uiso  ?  O
O1  1.0  0.3078921578187682  0.2551238323514517  0.1755304954494439  Uiso  ?  O
O1  1.0  0.3555907572057879  0.25127502906853955  0.17585675054142758  Uiso  ?  O
O1  1.0  0.30660542043416894  0.29986206429327905  0.17694395753252382  Uiso  ?  O
O1  1.0  0.3548756326277256  0.3026711598388463  0.17906617002258357  Uiso  ?  O
Ce1  1.0  0.28443261271121995  0.22843745377496397  0.1513369026289267  Uiso  ?  Ce
Ce1  1.0  0.28147206600189006  0.2751367625943256  0.10736096048910829  Uiso  ?  Ce
Ce1  1.0  0.33039592300795206  0.2300088234652973  0.1071663872212634  Uiso  ?  Ce
Ce1  1.0  0.3290867123855529  0.27810121584632624  0.15373952762123175  Uiso  ?  Ce
O1  1.0  0.308296312980127  0.25136286619976694  0.13011625193217632  Uiso  ?  O
O1  1.0  0.35648878097727743  0.25289453940567996  0.13319181032130986  Uiso  ?  O
O1  1.0  0.3053404291581392  0.3028709450006037  0.1263192104217888  Uiso  ?  O
O1  1.0  0.3566303245996306  0.29961636776854644  0.13017189917749314  Uiso  ?  O
O1  1.0  0.3047125901166916  0.25488789973892606  0.08323565899708164  Uiso  ?  O
O1  1.0  0.3517287637652007  0.25366548687520674  0.08491483500809593  Uiso  ?  O
O1  1.0  0.30520328077920156  0.30130092418439647  0.08207263302618988  Uiso  ?  O
O1  1.0  0.35418386136228375  0.29864857228775954  0.08273787250384965  Uiso  ?  O
Ce1  1.0  0.42698564630282576  0.22955882114948045  0.8744916982523797  Uiso  ?  Ce
O1  1.0  0.4007513180869933  0.25387485359041206  0.852135047714513  Uiso  ?  O
O1  1.0  0.45190383363331366  0.2542337779966599  0.8515549630629381  Uiso  ?  O
Ce1  1.0  0.37892655912415496  0.2295353747295619  0.8309827669708939  Uiso  ?  Ce
Ce1  1.0  0.3779361272958952  0.2769775335666933  0.7803904307180815  Uiso  ?  Ce
Ce1  1.0  0.4257766725082535  0.2279173149043312  0.7800949962539555  Uiso  ?  Ce
O1  1.0  0.40253789984432736  0.2532229157541826  0.8061496743790154  Uiso  ?  O
O1  1.0  0.4530717920461267  0.2532827469026078  0.8027056140522044  Uiso  ?  O
O1  1.0  0.40256436686890357  0.25154155657742433  0.7547651981290291  Uiso  ?  O
O1  1.0  0.4551570365881662  0.2542329114266014  0.7570408688816631  Uiso  ?  O
O1  1.0  0.44902961319033846  0.30087585236453285  0.7571452714676858  Uiso  ?  O
Ce1  1.0  0.37686026051613997  0.22847764698979922  0.7326747537752869  Uiso  ?  Ce
Ce1  1.0  0.38070649218980723  0.27967294610324406  0.6830905062739853  Uiso  ?  Ce
Ce1  1.0  0.4282355748896892  0.2286732409245373  0.6831954226311759  Uiso  ?  Ce
Ce1  1.0  0.42558943184104575  0.27761021385312695  0.73052541993417  Uiso  ?  Ce
O1  1.0  0.39864102175296745  0.252409388054155  0.7099534670282701  Uiso  ?  O
O1  1.0  0.45010547406044055  0.2534019554395311  0.7095349713400287  Uiso  ?  O
O1  1.0  0.40176049302647004  0.29988983360992194  0.7091547511542236  Uiso  ?  O
O1  1.0  0.4534657023502366  0.30031019666725456  0.7074590378045794  Uiso  ?  O
O1  1.0  0.40537597199078274  0.2544071237203718  0.6592037038849061  Uiso  ?  O
O1  1.0  0.4504669462906855  0.25444032198143224  0.6623329183154522  Uiso  ?  O
O1  1.0  0.40040616888108066  0.3032672374699462  0.6599557816144274  Uiso  ?  O
O1  1.0  0.4487448977721773  0.300749848783566  0.6623362368527891  Uiso  ?  O
Ce1  1.0  0.38101430768457406  0.22975777067606704  0.6364930734401685  Uiso  ?  Ce
Ce1  1.0  0.37955743496239686  0.2759658461018557  0.5886096528275355  Uiso  ?  Ce
Ce1  1.0  0.4262267501959397  0.2247531890446509  0.5868303847877517  Uiso  ?  Ce
Ce1  1.0  0.4298093882853402  0.2757256001916555  0.6337782414907615  Uiso  ?  Ce
O1  1.0  0.3996749122677607  0.2521510314977261  0.6128478085360377  Uiso  ?  O
O1  1.0  0.4486867578329397  0.2503069683039783  0.6162225554053186  Uiso  ?  O
O1  1.0  0.4047731501353411  0.2999067920355058  0.6111743286220384  Uiso  ?  O
O1  1.0  0.45285371752578196  0.30001843886995894  0.6101363168834864  Uiso  ?  O
O1  1.0  0.40326303184477436  0.2508700804007477  0.5593488668087573  Uiso  ?  O
O1  1.0  0.4512638618052745  0.25471107800406967  0.5615687987607332  Uiso  ?  O
O1  1.0  0.4014048027923011  0.3042356447990432  0.565223593946778  Uiso  ?  O
O1  1.0  0.44954936306781024  0.29932275692413457  0.561167483194617  Uiso  ?  O
Ce1  1.0  0.3778872995962179  0.22508796316546098  0.5393195263509931  Uiso  ?  Ce
Ce1  1.0  0.37996957121240793  0.2764190197603438  0.4905762624927486  Uiso  ?  Ce
Ce1  1.0  0.4247314211061576  0.22754125396600372  0.48931309128816103  Uiso  ?  Ce
Ce1  1.0  0.4262365025887109  0.27296939922805563  0.5400465131891025  Uiso  ?  Ce
O1  1.0  0.40357546769764835  0.25544394066180737  0.5159220051748872  Uiso  ?  O
O1  1.0  0.4519483875313713  0.25310183114393703  0.5181493716481936  Uiso  ?  O
O1  1.0  0.40336801623934726  0.2984842703280523  0.5169086209940131  Uiso  ?  O
O1  1.0  0.451417880512452  0.3014866956573131  0.5158844733108023  Uiso  ?  O
O1  1.0  0.4009688300321334  0.25184391359029135  0.4675265798702502  Uiso  ?  O
O1  1.0  0.4509357950042093  0.25251839227325124  0.47045147086531425  Uiso  ?  O
O1  1.0  0.4022775363502123  0.299842831775453  0.4672307569491054  Uiso  ?  O
O1  1.0  0.45141258731365513  0.302576185814849  0.46596709634036626  Uiso  ?  O
Ce1  1.0  0.37650567839492005  0.22857781975039307  0.44475477560226145  Uiso  ?  Ce
Ce1  1.0  0.38155369612137374  0.27583810751969967  0.3940931251391727  Uiso  ?  Ce
Ce1  1.0  0.42120964805596267  0.22628329994115914  0.3951093988023603  Uiso  ?  Ce
Ce1  1.0  0.4312579984127655  0.2759912736388364  0.44403336523628995  Uiso  ?  Ce
O1  1.0  0.4018328012437006  0.25439674399162326  0.42021010116133617  Uiso  ?  O
O1  1.0  0.45094745476559517  0.2534854776706996  0.4223199358859587  Uiso  ?  O
O1  1.0  0.4023233445923378  0.3016177386027228  0.4203507820838854  Uiso  ?  O
O1  1.0  0.44968675728947854  0.301961676275609  0.4193070372924778  Uiso  ?  O
O1  1.0  0.4027218972283433  0.2537817744371016  0.37144859514355166  Uiso  ?  O
O1  1.0  0.4509502321619123  0.25374544413263933  0.37292583604305635  Uiso  ?  O
O1  1.0  0.40262206305282505  0.2988283963867675  0.36936639900750395  Uiso  ?  O
O1  1.0  0.44837307458403247  0.3006352184576761  0.37083780351891654  Uiso  ?  O
Ce1  1.0  0.3771880520440536  0.22968951912295957  0.34748390042583377  Uiso  ?  Ce
Ce1  1.0  0.37550798105609234  0.2779632712133539  0.2986113800222741  Uiso  ?  Ce
Ce1  1.0  0.426695761004948  0.2272023459091011  0.2983274836871262  Uiso  ?  Ce
Ce1  1.0  0.42654628629628555  0.27558394277900644  0.3470346591608627  Uiso  ?  Ce
O1  1.0  0.3999893364007198  0.25406014553633355  0.32349490137068265  Uiso  ?  O
O1  1.0  0.4502621264994449  0.2526580503685298  0.3232298804880413  Uiso  ?  O
O1  1.0  0.40449346874563685  0.30076930127213525  0.3231097251373583  Uiso  ?  O
O1  1.0  0.45407947041240065  0.30021882156070023  0.3236530861113918  Uiso  ?  O
O1  1.0  0.40558978784210253  0.2517748760506926  0.2730911891235713  Uiso  ?  O
O1  1.0  0.4519957490002938  0.25540100699441703  0.2739159838780859  Uiso  ?  O
O1  1.0  0.40038596478057253  0.30332113108981684  0.2732684198787211  Uiso  ?  O
O1  1.0  0.45167924995461184  0.29915515687367067  0.27310910564016205  Uiso  ?  O
Ce1  1.0  0.3808496577473319  0.23074595860675032  0.24839625436042748  Uiso  ?  Ce
Ce1  1.0  0.3783653403857141  0.2746000142056344  0.2018648332966184  Uiso  ?  Ce
Ce1  1.0  0.4269258295986571  0.23130564871136813  0.20195012085854255  Uiso  ?  Ce
Ce1  1.0  0.42493442830039646  0.27556009674636667  0.2522614899226379  Uiso  ?  Ce
O1  1.0  0.40489028175513464  0.25325088758600195  0.2274777353576368  Uiso  ?  O
O1  1.0  0.45355061828689863  0.25330495186905966  0.22845512146371813  Uiso  ?  O
O1  1.0  0.4039457518038715  0.30252147639291604  0.22515482850511997  Uiso  ?  O
O1  1.0  0.4514793844440889  0.30058823476956803  0.22972009601625956  Uiso  ?  O
O1  1.0  0.40353327331728095  0.2535948851569908  0.17877622085232941  Uiso  ?  O
O1  1.0  0.45023595310343123  0.25236064812534503  0.17657739832877137  Uiso  ?  O
O1  1.0  0.402474686707475  0.29695427235560384  0.1804213903850414  Uiso  ?  O
O1  1.0  0.4523038425904026  0.3011674329909255  0.17813621191255594  Uiso  ?  O
Ce1  1.0  0.3797231138617168  0.22989616018072617  0.15214123787339998  Uiso  ?  Ce
Ce1  1.0  0.3797165153613403  0.2780096260965294  0.10738724303813431  Uiso  ?  Ce
Ce1  1.0  0.426951376419086  0.22895813006989246  0.10706408349884065  Uiso  ?  Ce
Ce1  1.0  0.4270455124044793  0.27544096125158596  0.1544828505708259  Uiso  ?  Ce
O1  1.0  0.40254254932159217  0.25321578559348157  0.1274860286470746  Uiso  ?  O
O1  1.0  0.45548603109714414  0.2546994993295741  0.13213638857214777  Uiso  ?  O
O1  1.0  0.39886854926141196  0.29717397456808853  0.12943969533439387  Uiso  ?  O
O1  1.0  0.44974741904270277  0.2998055146692332  0.12852731297410083  Uiso  ?  O
O1  1.0  0.4029412672252616  0.25270380460170433  0.07999809581027403  Uiso  ?  O
O1  1.0  0.45332660629095484  0.25139656528890797  0.08180877445315175  Uiso  ?  O
O1  1.0  0.40220172529724213  0.3020254904849686  0.08121260941340788  Uiso  ?  O
O1  1.0  0.4503706902992864  0.300744005349388  0.08283866237954003  Uiso  ?  O
Ce1  1.0  0.47342755078515175  0.22659078420754505  0.9271690360893081  Uiso  ?  Ce
Ce1  1.0  0.5253462566602574  0.22963519131875287  0.8780080323739412  Uiso  ?  Ce
O1  1.0  0.4980180455657879  0.2553326074655649  0.8542448544866688  Uiso  ?  O
O1  1.0  0.5493555270410656  0.25042768382881847  0.8518139274605327  Uiso  ?  O
Ce1  1.0  0.47237052981677924  0.22914606137696514  0.8291055523929421  Uiso  ?  Ce
Ce1  1.0  0.4747928753210197  0.27533908164133747  0.7836730475979402  Uiso  ?  Ce
Ce1  1.0  0.5217941977299363  0.23090934628514065  0.783519219648783  Uiso  ?  Ce
O1  1.0  0.4953006045372202  0.2537694980193716  0.8013599221626043  Uiso  ?  O
O1  1.0  0.5490639765881739  0.25128987112641615  0.8052183824637661  Uiso  ?  O
O1  1.0  0.4987708019775469  0.25312306948679  0.7546932753635902  Uiso  ?  O
O1  1.0  0.5480129699650481  0.2535406178992932  0.757862406004488  Uiso  ?  O
O1  1.0  0.4997650977873958  0.29856404499911415  0.7569869094749948  Uiso  ?  O
O1  1.0  0.5489481258452866  0.2990228009621655  0.7585484155402215  Uiso  ?  O
Ce1  1.0  0.47481448598410797  0.23102660549759846  0.7321222460846011  Uiso  ?  Ce
Ce1  1.0  0.4725629924373237  0.27685080432662507  0.6829047405484533  Uiso  ?  Ce
Ce1  1.0  0.5207820673079457  0.2267043786744365  0.6792805115150656  Uiso  ?  Ce
Ce1  1.0  0.5211932812310975  0.2781956449656663  0.7331303700628303  Uiso  ?  Ce
O1  1.0  0.501852940705645  0.251786720792552  0.7088736032671044  Uiso  ?  O
O1  1.0  0.5447947891650706  0.253271822132501  0.7102911395424747  Uiso  ?  O
O1  1.0  0.5029751403173592  0.30289769974841785  0.705641546475773  Uiso  ?  O
O1  1.0  0.5477447555871106  0.3040077792385806  0.707876645119282  Uiso  ?  O
O1  1.0  0.4973374732050547  0.25122151155814965  0.6579243080251396  Uiso  ?  O
O1  1.0  0.5489889005264634  0.25201938424221676  0.6588780910926754  Uiso  ?  O
O1  1.0  0.4985096256394572  0.3011096291230347  0.6594429494944964  Uiso  ?  O
O1  1.0  0.5466041809107518  0.2976457083574019  0.6598600339388808  Uiso  ?  O
Ce1  1.0  0.47297582503697816  0.22909434250027855  0.6331196055883862  Uiso  ?  Ce
Ce1  1.0  0.474056720734667  0.2741795004127008  0.586776099784872  Uiso  ?  Ce
Ce1  1.0  0.5235840923863032  0.22929011092684284  0.5870128355181725  Uiso  ?  Ce
Ce1  1.0  0.5272966475611179  0.27798113364490434  0.6326428511212472  Uiso  ?  Ce
O1  1.0  0.49862105784665195  0.2542783228727331  0.6144979163763995  Uiso  ?  O
O1  1.0  0.548343555713416  0.2524401125843507  0.6104005123864528  Uiso  ?  O
O1  1.0  0.49807795172597497  0.2991825481870019  0.6082638089295199  Uiso  ?  O
O1  1.0  0.5464265179158668  0.30116723239920756  0.6121111575877837  Uiso  ?  O
O1  1.0  0.5007131614093312  0.25293943469808994  0.5611861712590327  Uiso  ?  O
O1  1.0  0.544839331566777  0.25580192782851624  0.5599611326256866  Uiso  ?  O
O1  1.0  0.50057231754545  0.2996687330188617  0.5647474822227599  Uiso  ?  O
O1  1.0  0.5482364867101664  0.2988760995906252  0.5616911346590728  Uiso  ?  O
Ce1  1.0  0.4770920707873475  0.22624233893101306  0.5397760096917215  Uiso  ?  Ce
Ce1  1.0  0.4729235100978737  0.27840954948482804  0.4909927494829521  Uiso  ?  Ce
Ce1  1.0  0.5234915648695166  0.22794687869238048  0.4897673299132929  Uiso  ?  Ce
Ce1  1.0  0.5233347806436363  0.278754350347866  0.5374349228515561  Uiso  ?  Ce
O1  1.0  0.4960966006032815  0.2510861144715126  0.5134950960163097  Uiso  ?  O
O1  1.0  0.5466058298227431  0.2533430457316957  0.5166371684119719  Uiso  ?  O
O1  1.0  0.4986481057526682  0.3014937725540532  0.5146667790054187  Uiso  ?  O
O1  1.0  0.5479088751526373  0.3006042333870253  0.5157642894591102  Uiso  ?  O
O1  1.0  0.49896136129818447  0.2547489167307007  0.4648597821361249  Uiso  ?  O
O1  1.0  0.5460646890893222  0.25219654801288677  0.4680499309421567  Uiso  ?  O
O1  1.0  0.5002286203013591  0.30380149302877796  0.46706138045015483  Uiso  ?  O
O1  1.0  0.5451209784109606  0.29606356725337857  0.4692682694858006  Uiso  ?  O
Ce1  1.0  0.47519050381601446  0.22756862522301333  0.44195518270577044  Uiso  ?  Ce
Ce1  1.0  0.47159394220083184  0.2809064260198548  0.3915466177244578  Uiso  ?  Ce
Ce1  1.0  0.5233684441525225  0.22706686601623166  0.3945223838358112  Uiso  ?  Ce
Ce1  1.0  0.5228375102191695  0.27535925517275084  0.44392563682547187  Uiso  ?  Ce
O1  1.0  0.4972884988307139  0.25163513713312774  0.42150052191205245  Uiso  ?  O
O1  1.0  0.5490548394317574  0.25109920121057144  0.41901238778832445  Uiso  ?  O
O1  1.0  0.4972567795981432  0.30242482499588236  0.4161396511488895  Uiso  ?  O
O1  1.0  0.544454085976709  0.3027096764475881  0.41672505400738374  Uiso  ?  O
O1  1.0  0.4990041621906588  0.25091838877501715  0.3704704926815142  Uiso  ?  O
O1  1.0  0.5492922606457553  0.25349258944034153  0.3713848544963288  Uiso  ?  O
O1  1.0  0.49684315402909957  0.29836049500288303  0.3743810254058228  Uiso  ?  O
O1  1.0  0.5470149008586114  0.2989067723291703  0.37291514285923677  Uiso  ?  O
Ce1  1.0  0.47737184674102795  0.23100964021302092  0.34586847092805745  Uiso  ?  Ce
Ce1  1.0  0.47502269766237026  0.2733695031713569  0.2992085213132292  Uiso  ?  Ce
Ce1  1.0  0.5193775491920631  0.22830255306007097  0.2985997351021894  Uiso  ?  Ce
Ce1  1.0  0.5206484667150345  0.27420997391733787  0.3465099291471577  Uiso  ?  Ce
O1  1.0  0.4967541715545567  0.25406843998567513  0.3237435454874874  Uiso  ?  O
O1  1.0  0.5446542502882553  0.24778763376373897  0.3251536333286657  Uiso  ?  O
O1  1.0  0.49647636763357683  0.3013077273237742  0.3234924508969061  Uiso  ?  O
O1  1.0  0.5463354431926823  0.3002193801437353  0.32360514357467535  Uiso  ?  O
O1  1.0  0.4969648796169631  0.25477596825003285  0.27026078840087603  Uiso  ?  O
O1  1.0  0.5507787956883351  0.2534964342968608  0.27254401032592596  Uiso  ?  O
O1  1.0  0.49845987281578363  0.30227145067080796  0.2710597762584813  Uiso  ?  O
O1  1.0  0.5489480432146887  0.3002338673595511  0.2740679556181648  Uiso  ?  O
Ce1  1.0  0.47458502937685143  0.22847609595790785  0.24671166088897079  Uiso  ?  Ce
Ce1  1.0  0.47512199292082985  0.2778633217476376  0.2044627811456063  Uiso  ?  Ce
Ce1  1.0  0.5226861017387935  0.22900249314400975  0.20085486857705814  Uiso  ?  Ce
Ce1  1.0  0.5223284347077747  0.2749849570537601  0.24944641531092118  Uiso  ?  Ce
O1  1.0  0.4985956395024109  0.25316287380905245  0.22559111173816143  Uiso  ?  O
O1  1.0  0.5465465201321645  0.2502799972620082  0.22544337052850036  Uiso  ?  O
O1  1.0  0.49937473992167086  0.3023757011704469  0.22792000900471346  Uiso  ?  O
O1  1.0  0.5520718816764834  0.30024366409668873  0.2254534284815349  Uiso  ?  O
O1  1.0  0.4970980152809488  0.2510906250025818  0.1783335741133669  Uiso  ?  O
O1  1.0  0.5453832798112075  0.2530101422791414  0.17980235426169114  Uiso  ?  O
O1  1.0  0.49969743323127347  0.2998334265119922  0.17752115851988637  Uiso  ?  O
O1  1.0  0.5479548917888554  0.30187685398734476  0.17631133550405378  Uiso  ?  O
Ce1  1.0  0.47825543038838836  0.22789683686073334  0.1543527515263954  Uiso  ?  Ce
Ce1  1.0  0.4754755862122169  0.2770581548254893  0.10537097704745016  Uiso  ?  Ce
Ce1  1.0  0.5220790749183787  0.22916359875884032  0.10841109853201697  Uiso  ?  Ce
Ce1  1.0  0.5251401945282139  0.2777530875010665  0.154524442056027  Uiso  ?  Ce
O1  1.0  0.5006067988172098  0.25198989796469967  0.13204169942018928  Uiso  ?  O
O1  1.0  0.5481482121631233  0.25184527618802527  0.1294791524268901  Uiso  ?  O
O1  1.0  0.5033809902023724  0.301420564083266  0.12956236895145756  Uiso  ?  O
O1  1.0  0.5475204403436622  0.3007323212804093  0.1315954579287812  Uiso  ?  O
O1  1.0  0.49832551305283035  0.25376373847453065  0.08148355724454995  Uiso  ?  O
O1  1.0  0.5484427745710938  0.2539309723400354  0.08257183268107826  Uiso  ?  O
O1  1.0  0.49995411945827894  0.30013284041355615  0.08555099682915271  Uiso  ?  O
O1  1.0  0.5454847530827619  0.2990655407718839  0.08271055025061466  Uiso  ?  O
Ce1  1.0  0.5697760640699943  0.23047590032921167  0.9208109185610661  Uiso  ?  Ce
Ce1  1.0  0.6217065310675858  0.2307863780674597  0.8763080098852116  Uiso  ?  Ce
O1  1.0  0.5951788793704802  0.24928836821050804  0.8521358901418433  Uiso  ?  O
O1  1.0  0.643657065798789  0.25310218339338575  0.8524621201937447  Uiso  ?  O
Ce1  1.0  0.571715852709324  0.2307919978426166  0.8235084241078385  Uiso  ?  Ce
Ce1  1.0  0.5723887607518348  0.2784616866134737  0.7841380700076032  Uiso  ?  Ce
Ce1  1.0  0.6182153649030683  0.2287406360883473  0.7797131728472887  Uiso  ?  Ce
O1  1.0  0.5960654363471697  0.25470113334384725  0.8000261761753528  Uiso  ?  O
O1  1.0  0.6440022588376532  0.2523979990561189  0.8030385067781164  Uiso  ?  O
O1  1.0  0.5955901062229979  0.251933838097408  0.7563895874990787  Uiso  ?  O
O1  1.0  0.640518490615843  0.2551070854223719  0.7565367260940309  Uiso  ?  O
O1  1.0  0.5935668824784572  0.30145627811578657  0.7551672360071789  Uiso  ?  O
O1  1.0  0.6447252687054674  0.30194172854928397  0.7570724634049896  Uiso  ?  O
Ce1  1.0  0.5747298689074825  0.2273085176771639  0.7319051411869705  Uiso  ?  Ce
Ce1  1.0  0.5733727598543946  0.27991377711417564  0.6816084388705355  Uiso  ?  Ce
Ce1  1.0  0.619117220289439  0.2305288623947452  0.6837614363157357  Uiso  ?  Ce
Ce1  1.0  0.6181585574452192  0.27664160492701645  0.7310230239063632  Uiso  ?  Ce
O1  1.0  0.5980203829786815  0.2545772774104296  0.7086817707590088  Uiso  ?  O
O1  1.0  0.6422499761906392  0.2547626597295625  0.7090619653345527  Uiso  ?  O
O1  1.0  0.5928720494997437  0.30116568650443903  0.7045477601490608  Uiso  ?  O
O1  1.0  0.6438027568165646  0.3006681922474052  0.7061947079994736  Uiso  ?  O
O1  1.0  0.5963955220369035  0.2499986816449033  0.6586591234407518  Uiso  ?  O
O1  1.0  0.6407135513508491  0.25178439864104274  0.6595134627016462  Uiso  ?  O
O1  1.0  0.5942061351489901  0.3018401231823256  0.6575566609349226  Uiso  ?  O
O1  1.0  0.6419766881937266  0.29984530522645  0.6593173026453731  Uiso  ?  O
Ce1  1.0  0.5706077245485931  0.23301029661032974  0.6371189324510532  Uiso  ?  Ce
Ce1  1.0  0.5693629922063497  0.27697817111145584  0.5863003111219909  Uiso  ?  Ce
Ce1  1.0  0.6203750649252409  0.23138004985813473  0.5878418443398256  Uiso  ?  Ce
Ce1  1.0  0.6174684708079099  0.2768339271888166  0.6367473787528425  Uiso  ?  Ce
O1  1.0  0.5966856885624656  0.25321584539834663  0.6123510716738391  Uiso  ?  O
O1  1.0  0.6437640984383989  0.2538518467184383  0.611545023372027  Uiso  ?  O
O1  1.0  0.5977609703560549  0.30240838187103947  0.6146335273013798  Uiso  ?  O
O1  1.0  0.6436725916698003  0.30356686118354  0.6071068360647821  Uiso  ?  O
O1  1.0  0.5949958979564067  0.25200597627645777  0.564717679263003  Uiso  ?  O
O1  1.0  0.6404641533208592  0.25505743149560656  0.5625725569806531  Uiso  ?  O
O1  1.0  0.5937982154051624  0.30174934190300007  0.5620118826729829  Uiso  ?  O
O1  1.0  0.6409527004254165  0.2985710737572217  0.5639029588776165  Uiso  ?  O
Ce1  1.0  0.5748161050383214  0.23037018031986778  0.5398374966366832  Uiso  ?  Ce
Ce1  1.0  0.5714810253516217  0.2775707968499277  0.49475610774992423  Uiso  ?  Ce
Ce1  1.0  0.6176600837450062  0.2283687127867554  0.4903427154473928  Uiso  ?  Ce
Ce1  1.0  0.6178675149776304  0.275746631184115  0.5445845804555538  Uiso  ?  Ce
O1  1.0  0.5934589778882481  0.25328002849176906  0.5190647918407151  Uiso  ?  O
O1  1.0  0.6423350097451073  0.2532745795138528  0.5189065530409525  Uiso  ?  O
O1  1.0  0.5956527378298363  0.2996290249893597  0.5166505820949858  Uiso  ?  O
O1  1.0  0.643103011394103  0.30153742159930186  0.5189392505482944  Uiso  ?  O
O1  1.0  0.5986821235595678  0.24934890017394531  0.46723040650361053  Uiso  ?  O
O1  1.0  0.6440576460710471  0.2553404318778054  0.46881283788146155  Uiso  ?  O
O1  1.0  0.5944578586824959  0.30212276003765803  0.4706777836359002  Uiso  ?  O
O1  1.0  0.643988161279281  0.30148617667881966  0.46739409200706417  Uiso  ?  O
Ce1  1.0  0.5716363524153756  0.22983618662542796  0.4437596008944755  Uiso  ?  Ce
Ce1  1.0  0.5723475898457684  0.2774281792942239  0.39326466879855904  Uiso  ?  Ce
Ce1  1.0  0.6241779760447166  0.22791646100322333  0.3955700798999621  Uiso  ?  Ce
Ce1  1.0  0.6177412685801751  0.2780507080915634  0.4437141715685777  Uiso  ?  Ce
O1  1.0  0.5942353901446391  0.25261166621100717  0.4197040083184928  Uiso  ?  O
O1  1.0  0.6452091557282922  0.2534022961443491  0.41432985903499964  Uiso  ?  O
O1  1.0  0.5936055714223523  0.30163685365818244  0.4159551543794564  Uiso  ?  O
O1  1.0  0.6423722721757031  0.3003706670049245  0.41616025455462075  Uiso  ?  O
O1  1.0  0.5985971582502925  0.25035152336172745  0.37380182268361606  Uiso  ?  O
O1  1.0  0.6434800488497656  0.2525454037751819  0.3703900101970763  Uiso  ?  O
O1  1.0  0.5953996679732404  0.29937128320554346  0.36921796634004483  Uiso  ?  O
O1  1.0  0.6406871458290024  0.29828955875319574  0.3692594745046817  Uiso  ?  O
Ce1  1.0  0.5698188002400079  0.23009252658277043  0.3487660482786762  Uiso  ?  Ce
Ce1  1.0  0.5725347991580491  0.27746040089873997  0.2997723732405358  Uiso  ?  Ce
Ce1  1.0  0.6180252615756664  0.22996697657805687  0.2979782193613784  Uiso  ?  Ce
Ce1  1.0  0.6187077297801477  0.275741944918771  0.3478385407488462  Uiso  ?  Ce
O1  1.0  0.5959920570767924  0.2531823780133829  0.3263676820404215  Uiso  ?  O
O1  1.0  0.6425061696881602  0.2526111513087869  0.3220071738460169  Uiso  ?  O
O1  1.0  0.5971173091842377  0.3007849075282083  0.32256890687614065  Uiso  ?  O
O1  1.0  0.6419431418884903  0.3018831248377999  0.3255942496251325  Uiso  ?  O
O1  1.0  0.594332636633373  0.25292634998685076  0.27607108280263987  Uiso  ?  O
O1  1.0  0.6401480381139052  0.25602945513471626  0.2753540349882416  Uiso  ?  O
O1  1.0  0.5962919225035643  0.30176386795330284  0.2755750848177141  Uiso  ?  O
O1  1.0  0.6428962535328813  0.30093045527475437  0.2761674326905859  Uiso  ?  O
Ce1  1.0  0.5722757455704597  0.22397272190164041  0.25048511588774836  Uiso  ?  Ce
Ce1  1.0  0.574850779999017  0.2781014698732422  0.2040828434248421  Uiso  ?  Ce
Ce1  1.0  0.6197772653988766  0.22788904591709064  0.20030261044697117  Uiso  ?  Ce
Ce1  1.0  0.6184093480142341  0.2748828581411873  0.25112237296724765  Uiso  ?  Ce
O1  1.0  0.5949771879247976  0.25565634830867573  0.22609757952577272  Uiso  ?  O
O1  1.0  0.6407166479220151  0.25281692121172356  0.2256023583437998  Uiso  ?  O
O1  1.0  0.5948447123779496  0.3022184174715283  0.2270741502723659  Uiso  ?  O
O1  1.0  0.641229294663563  0.3017198432287742  0.22412171591694652  Uiso  ?  O
O1  1.0  0.5963756236394897  0.25416746175857574  0.17702034705945832  Uiso  ?  O
O1  1.0  0.6434196656020467  0.25189919698235624  0.18038387143724374  Uiso  ?  O
O1  1.0  0.5938786029459443  0.303674696823146  0.17830632750529077  Uiso  ?  O
O1  1.0  0.6441398929039991  0.3037669509858185  0.17702783210407777  Uiso  ?  O
Ce1  1.0  0.5725455291728409  0.2253754248190889  0.15248929611187273  Uiso  ?  Ce
Ce1  1.0  0.5739131776627014  0.2748920026745994  0.10621601124965815  Uiso  ?  Ce
Ce1  1.0  0.6227059308704733  0.22790796071555158  0.10720911920087273  Uiso  ?  Ce
Ce1  1.0  0.6172571667507076  0.2780162027439466  0.1552772352139488  Uiso  ?  Ce
O1  1.0  0.5934594347675465  0.24964076731023038  0.12796754820485753  Uiso  ?  O
O1  1.0  0.6408016510997019  0.24796734250665964  0.13111706873265755  Uiso  ?  O
O1  1.0  0.593447239322303  0.3008423695284585  0.1294245678208718  Uiso  ?  O
O1  1.0  0.6430849280343339  0.30253538992593093  0.1305838476042673  Uiso  ?  O
O1  1.0  0.5948623734130863  0.25380929038285904  0.08174511546995233  Uiso  ?  O
O1  1.0  0.6426099022373126  0.2524687232785323  0.08159685012671529  Uiso  ?  O
O1  1.0  0.5958984449725974  0.3025037072730699  0.08203924504461829  Uiso  ?  O
O1  1.0  0.6405255030931496  0.30203572517946614  0.0817580397081943  Uiso  ?  O
Ce1  1.0  0.6683493980871945  0.2275315815512614  0.9222751167992587  Uiso  ?  Ce
O1  1.0  0.6939445181432831  0.25061657165157625  0.8516422881196879  Uiso  ?  O
Ce1  1.0  0.6679273693131901  0.228714641655579  0.8272779734320065  Uiso  ?  Ce
Ce1  1.0  0.6679796851799723  0.2763161505622274  0.7808885429713609  Uiso  ?  Ce
Ce1  1.0  0.717310197819512  0.22546957947596039  0.7769991920481538  Uiso  ?  Ce
O1  1.0  0.6926067273620915  0.2520787818565033  0.8055344496041477  Uiso  ?  O
O1  1.0  0.742048595845955  0.25047586529539206  0.8025097318276762  Uiso  ?  O
O1  1.0  0.6923968322866181  0.2519416824661158  0.7624556807888844  Uiso  ?  O
O1  1.0  0.7390396025101794  0.2527742585728151  0.7587874270798075  Uiso  ?  O
Ce1  1.0  0.6707994379377693  0.2311008938600205  0.7327269166428548  Uiso  ?  Ce
Ce1  1.0  0.6637547512988226  0.2749676462734921  0.6812561535393852  Uiso  ?  Ce
Ce1  1.0  0.715595612708022  0.2280618226383255  0.6833668540917146  Uiso  ?  Ce
Ce1  1.0  0.7152825576913356  0.27619093611500783  0.7342672048879951  Uiso  ?  Ce
O1  1.0  0.6923442719517514  0.24811914934068696  0.7093435682307063  Uiso  ?  O
O1  1.0  0.7378417689339326  0.2507802054083772  0.7081204514006786  Uiso  ?  O
O1  1.0  0.6928134968933493  0.30301641676966967  0.7105246283694032  Uiso  ?  O
O1  1.0  0.6926628311099527  0.25133381949720496  0.658691441309385  Uiso  ?  O
O1  1.0  0.7374993436018695  0.25218968866449765  0.6605357179835141  Uiso  ?  O
O1  1.0  0.6936587439573332  0.2981804596404984  0.6606411765896367  Uiso  ?  O
O1  1.0  0.7386745057326656  0.299323621197873  0.6594746514037103  Uiso  ?  O
Ce1  1.0  0.6652756365765554  0.23014930416595722  0.6375513630715889  Uiso  ?  Ce
Ce1  1.0  0.6703462753185683  0.27583602934080476  0.5882322759676111  Uiso  ?  Ce
Ce1  1.0  0.7158712359674563  0.23172841863982083  0.5888193808605295  Uiso  ?  Ce
Ce1  1.0  0.7181126721190279  0.2748558971797557  0.6356416766498811  Uiso  ?  Ce
O1  1.0  0.6930183039793093  0.25745202679356854  0.6160536432645655  Uiso  ?  O
O1  1.0  0.742026521989996  0.2538172319077077  0.6105076045298138  Uiso  ?  O
O1  1.0  0.6940261327492001  0.30402738943135793  0.6103219593705556  Uiso  ?  O
O1  1.0  0.7438861346005471  0.30094525832023666  0.6122227949223503  Uiso  ?  O
O1  1.0  0.6957072489458909  0.25364272008301114  0.5639627243040732  Uiso  ?  O
O1  1.0  0.740622073729932  0.25128173252053726  0.5637829708777977  Uiso  ?  O
O1  1.0  0.6942098139946854  0.3016542299159026  0.56505340661203  Uiso  ?  O
O1  1.0  0.7420338512500274  0.3020256716790264  0.5636207660707289  Uiso  ?  O
Ce1  1.0  0.6705097575791323  0.2318742336960945  0.5385005095935217  Uiso  ?  Ce
Ce1  1.0  0.6678933666172397  0.27607062738788307  0.4911428316019936  Uiso  ?  Ce
Ce1  1.0  0.7141619618001017  0.22885523243838682  0.49205015248370115  Uiso  ?  Ce
Ce1  1.0  0.7140925572165571  0.2774533412816808  0.5379519555493439  Uiso  ?  Ce
O1  1.0  0.6897448885341029  0.25317480913997803  0.5143198134572669  Uiso  ?  O
O1  1.0  0.7409695865467358  0.25249899776267803  0.5147880900620555  Uiso  ?  O
O1  1.0  0.6929163203084825  0.29885611017509484  0.5205462916013088  Uiso  ?  O
O1  1.0  0.7432095859951565  0.3026736226428457  0.5122841174966862  Uiso  ?  O
O1  1.0  0.6920220888157438  0.2544555753920073  0.46605115111629536  Uiso  ?  O
O1  1.0  0.7394384889218909  0.2538578224859035  0.4665720225867458  Uiso  ?  O
O1  1.0  0.6894227540330663  0.30163832616423336  0.46670174100083545  Uiso  ?  O
O1  1.0  0.7406038004987944  0.3016450024978768  0.46726260361053285  Uiso  ?  O
Ce1  1.0  0.6665484845491092  0.22816309879914662  0.4424369519903029  Uiso  ?  Ce
Ce1  1.0  0.6692122138825612  0.2759692721456798  0.3958792641439179  Uiso  ?  Ce
Ce1  1.0  0.7118172006830612  0.22549118956041078  0.3924931069760349  Uiso  ?  Ce
Ce1  1.0  0.7153637512381793  0.27737986575946966  0.44578105380064054  Uiso  ?  Ce
O1  1.0  0.6926918360231684  0.25362634273466755  0.42023275566130214  Uiso  ?  O
O1  1.0  0.7407616595007994  0.2534658011466635  0.4192619698761426  Uiso  ?  O
O1  1.0  0.6889643010208664  0.29957372973314256  0.42076638565187147  Uiso  ?  O
O1  1.0  0.739716324518107  0.294472131413105  0.41841649964549  Uiso  ?  O
O1  1.0  0.6895681281614662  0.2490531156936463  0.3700991087759348  Uiso  ?  O
O1  1.0  0.7390462955155918  0.2519195793317499  0.37185471081910937  Uiso  ?  O
O1  1.0  0.6928485082592549  0.30369378560358257  0.3692045802925659  Uiso  ?  O
O1  1.0  0.7390909096972859  0.3008412503382267  0.37291554853153347  Uiso  ?  O
Ce1  1.0  0.6665754512692388  0.2312773768337704  0.34457303435309156  Uiso  ?  Ce
Ce1  1.0  0.670271772732907  0.2778506872740506  0.3013574161604545  Uiso  ?  Ce
Ce1  1.0  0.7156754441164201  0.23094554665140493  0.29562956520946576  Uiso  ?  Ce
Ce1  1.0  0.7152868109758254  0.27713608455471794  0.3449401704735754  Uiso  ?  Ce
O1  1.0  0.6911357579437403  0.25335885146056486  0.3193496163387057  Uiso  ?  O
O1  1.0  0.7394053482404376  0.25030909791440276  0.321173432752663  Uiso  ?  O
O1  1.0  0.6920934159677518  0.3033964453439986  0.32201260922921376  Uiso  ?  O
O1  1.0  0.7396367598598239  0.30119000250142886  0.3212054200527857  Uiso  ?  O
O1  1.0  0.6948487034061663  0.2548797424654258  0.27824259148796515  Uiso  ?  O
O1  1.0  0.7394543557946859  0.2522252727354297  0.27503562352071076  Uiso  ?  O
O1  1.0  0.6902350679794077  0.30098781302670297  0.27451208020870455  Uiso  ?  O
O1  1.0  0.7384970611684445  0.3003828653051194  0.2738649479894459  Uiso  ?  O
Ce1  1.0  0.6658556497692257  0.22799965774880712  0.24834425271191335  Uiso  ?  Ce
Ce1  1.0  0.6681345284747585  0.27940114742726746  0.20305753677546282  Uiso  ?  Ce
Ce1  1.0  0.7176260481933805  0.22641748285798158  0.2002811932067749  Uiso  ?  Ce
Ce1  1.0  0.7132709484438416  0.2773382587425667  0.24849212039587165  Uiso  ?  Ce
O1  1.0  0.6910350275184216  0.25567887596181665  0.22640975461743104  Uiso  ?  O
O1  1.0  0.7416908466140353  0.25153554406064327  0.22877138351122206  Uiso  ?  O
O1  1.0  0.6926973718472308  0.29975767111675466  0.22561770068406903  Uiso  ?  O
O1  1.0  0.739019568306665  0.3012577796177833  0.22835663347489327  Uiso  ?  O
O1  1.0  0.6948271443312144  0.2531877664273843  0.17545824998882023  Uiso  ?  O
O1  1.0  0.735615097528858  0.25162374984715064  0.18067560158770965  Uiso  ?  O
O1  1.0  0.6912492318065966  0.29683234985699375  0.1778379956033608  Uiso  ?  O
O1  1.0  0.7397757779791474  0.300958790788077  0.17761200651568096  Uiso  ?  O
Ce1  1.0  0.66956183957323  0.22804444414461805  0.15356805563029252  Uiso  ?  Ce
Ce1  1.0  0.6654385541487249  0.2770916425952369  0.10870676635054113  Uiso  ?  Ce
Ce1  1.0  0.7164931444471441  0.2275651634069632  0.10414223340447132  Uiso  ?  Ce
Ce1  1.0  0.7159690858517395  0.2758103814393204  0.15379040666525606  Uiso  ?  Ce
O1  1.0  0.6935574417951336  0.25381440595103444  0.12834782664104344  Uiso  ?  O
O1  1.0  0.7419515981709627  0.2505091074176062  0.13028043592307298  Uiso  ?  O
O1  1.0  0.6949407552680323  0.29852653966238824  0.1307024749067163  Uiso  ?  O
O1  1.0  0.7381893242428135  0.3009809736416786  0.13006065106282122  Uiso  ?  O
O1  1.0  0.6898539393728237  0.2490108804319897  0.07829555484352584  Uiso  ?  O
O1  1.0  0.73770382734592  0.2516662326728716  0.08292934810013684  Uiso  ?  O
O1  1.0  0.6928227784168077  0.3007609703400798  0.08015317074272638  Uiso  ?  O
O1  1.0  0.7407149805448915  0.2999581780914431  0.08056008635722199  Uiso  ?  O
Ce1  1.0  0.7631529506923883  0.2274782567178494  0.7343388588541129  Uiso  ?  Ce
Ce1  1.0  0.7681870746607209  0.2745965286820241  0.6867697645071259  Uiso  ?  Ce
Ce1  1.0  0.8126038610865599  0.2316133354992013  0.6826523234435761  Uiso  ?  Ce
O1  1.0  0.7872950007157752  0.2542577820112073  0.7080910085513882  Uiso  ?  O
O1  1.0  0.7863572867069046  0.24852505564116412  0.6612515808615509  Uiso  ?  O
O1  1.0  0.78501805958343  0.30109069511762365  0.657626510071855  Uiso  ?  O
Ce1  1.0  0.7611461129096445  0.2279474860235294  0.6382319302708545  Uiso  ?  Ce
Ce1  1.0  0.7628776844017024  0.27630717188877885  0.5884268364469898  Uiso  ?  Ce
Ce1  1.0  0.8084353516424072  0.22823091585728164  0.5868804587733838  Uiso  ?  Ce
Ce1  1.0  0.8132169780824068  0.2753491391332799  0.634904071612808  Uiso  ?  Ce
O1  1.0  0.7876291181494652  0.25351498732577554  0.6107400213511234  Uiso  ?  O
O1  1.0  0.7903091589554035  0.3054786119045694  0.6097101978815436  Uiso  ?  O
O1  1.0  0.7905951545793536  0.2542868411175876  0.5630413914905942  Uiso  ?  O
O1  1.0  0.7878596976989264  0.30102445620979423  0.562650828335867  Uiso  ?  O
Ce1  1.0  0.764387107221133  0.2273062881133643  0.5384058623280374  Uiso  ?  Ce
Ce1  1.0  0.7631898461134563  0.277129400692309  0.49083352193494995  Uiso  ?  Ce
Ce1  1.0  0.8134724724222935  0.2280649901851868  0.4932420072738239  Uiso  ?  Ce
Ce1  1.0  0.81079023392382  0.2788969144803801  0.5382133292939947  Uiso  ?  Ce
O1  1.0  0.7845072967344369  0.252766347328746  0.5164764925254645  Uiso  ?  O
O1  1.0  0.789783350657143  0.29955260601279365  0.5139740904308351  Uiso  ?  O
O1  1.0  0.7876220734947953  0.25348611165841906  0.4676047554120371  Uiso  ?  O
O1  1.0  0.7887121606364987  0.3009762948136615  0.4667510854521502  Uiso  ?  O
Ce1  1.0  0.7634076355799624  0.23251963955932722  0.4420188463842424  Uiso  ?  Ce
Ce1  1.0  0.7608848290025262  0.2789551096951247  0.3922103016142522  Uiso  ?  Ce
Ce1  1.0  0.8109040113675726  0.22435809490655845  0.39592865085064854  Uiso  ?  Ce
Ce1  1.0  0.8115207155413545  0.27619297376593355  0.4439214126459289  Uiso  ?  Ce
O1  1.0  0.7870067701265413  0.2521863113814255  0.41630695198460965  Uiso  ?  O
O1  1.0  0.7869786828134263  0.29839522228501536  0.41753886683431957  Uiso  ?  O
O1  1.0  0.7913708852626561  0.25280093445055707  0.37185046225410884  Uiso  ?  O
O1  1.0  0.7906318722434373  0.301295147219803  0.37216604031018913  Uiso  ?  O
Ce1  1.0  0.7652326971645076  0.23035902290437874  0.34804555547280763  Uiso  ?  Ce
Ce1  1.0  0.7651480036354326  0.27446863709365715  0.2987858374479986  Uiso  ?  Ce
Ce1  1.0  0.8144662904074322  0.23073934684944528  0.2964102294779965  Uiso  ?  Ce
Ce1  1.0  0.8145094985500805  0.27642326517237065  0.34754990320188384  Uiso  ?  Ce
O1  1.0  0.7874507065643426  0.25445101291994837  0.32535141689602975  Uiso  ?  O
O1  1.0  0.788574562987738  0.2981346649184548  0.32394750492620866  Uiso  ?  O
O1  1.0  0.7870749742873159  0.251619059239174  0.27254612456251737  Uiso  ?  O
O1  1.0  0.7877940455682328  0.2996526627161239  0.2738637070825269  Uiso  ?  O
Ce1  1.0  0.7639052217074034  0.232983429224551  0.24966175924368605  Uiso  ?  Ce
Ce1  1.0  0.7682499757437489  0.2778126447753336  0.2029319736151827  Uiso  ?  Ce
Ce1  1.0  0.8141438559825085  0.2264453287922147  0.19996618562063612  Uiso  ?  Ce
Ce1  1.0  0.8113735944464817  0.2757889119232387  0.25034704717920836  Uiso  ?  Ce
O1  1.0  0.7875762642594906  0.2525012056559471  0.22422283352151295  Uiso  ?  O
O1  1.0  0.7888641648211703  0.29983027975917953  0.22167768817980135  Uiso  ?  O
O1  1.0  0.7884580485146503  0.2499784942390314  0.17825088525008786  Uiso  ?  O
O1  1.0  0.7898140177753147  0.30247954124728493  0.18047302604395973  Uiso  ?  O
Ce1  1.0  0.7619985100937511  0.2276049012807088  0.155384665419196  Uiso  ?  Ce
Ce1  1.0  0.7626605943210721  0.2747782925915007  0.10470356908274336  Uiso  ?  Ce
Ce1  1.0  0.8101211923549099  0.22643356582521382  0.1066193310652815  Uiso  ?  Ce
Ce1  1.0  0.8112586942882754  0.2804872525865696  0.1571272291554571  Uiso  ?  Ce
O1  1.0  0.7910021246964237  0.25244808248365774  0.12875136999979514  Uiso  ?  O
O1  1.0  0.7919000260219541  0.30006007274460844  0.12556380032591208  Uiso  ?  O
O1  1.0  0.7892030377779932  0.253849858707945  0.07933434975464895  Uiso  ?  O
O1  1.0  0.7898586563022383  0.3036557143986595  0.08283760960714123  Uiso  ?  O
O1  1.0  0.2585490138038855  0.20058551547348746  0.7566073304594645  Uiso  ?  O
Ce1  1.0  0.18480475444709077  0.18059289173213902  0.6832964268017039  Uiso  ?  Ce
Ce1  1.0  0.23374530035294702  0.1819368724743385  0.7330785697540616  Uiso  ?  Ce
O1  1.0  0.2598948500776358  0.20721244897805557  0.7078783102022196  Uiso  ?  O
O1  1.0  0.20874520330563706  0.20488521929389358  0.6573828911428671  Uiso  ?  O
O1  1.0  0.25833910133959126  0.20461044985246057  0.6580230029172153  Uiso  ?  O
Ce1  1.0  0.18680603190306758  0.17955004484591486  0.5858961068347133  Uiso  ?  Ce
Ce1  1.0  0.23495335380208857  0.1802976904459683  0.6365994634091686  Uiso  ?  Ce
O1  1.0  0.20973197533230514  0.20349954041958437  0.6129487437586585  Uiso  ?  O
O1  1.0  0.2599814111257286  0.20459944835899332  0.6084922068585847  Uiso  ?  O
O1  1.0  0.21378625585416938  0.20875836499367245  0.5636529215241278  Uiso  ?  O
O1  1.0  0.25648482751514223  0.20652600069330618  0.5639783021437036  Uiso  ?  O
Ce1  1.0  0.1848009749618389  0.17903647869404643  0.4869013670294663  Uiso  ?  Ce
Ce1  1.0  0.23686275469053727  0.17843895618099218  0.5367952775726962  Uiso  ?  Ce
O1  1.0  0.21178771380090478  0.20329997648793663  0.5140087275198741  Uiso  ?  O
O1  1.0  0.26162989427128586  0.20445637669197728  0.5144236362216481  Uiso  ?  O
O1  1.0  0.21141983580977328  0.2035119431832454  0.46557158838396956  Uiso  ?  O
O1  1.0  0.25853354961970654  0.2051868017504969  0.4720634051419804  Uiso  ?  O
Ce1  1.0  0.18794024784411328  0.1785224980116818  0.3917885112382755  Uiso  ?  Ce
O1  1.0  0.20963516113060465  0.2052806273576783  0.4178618829904013  Uiso  ?  O
O1  1.0  0.2573780634418996  0.20667826301976547  0.418830854096568  Uiso  ?  O
O1  1.0  0.2094562912575619  0.2050840188170693  0.3724450837178942  Uiso  ?  O
O1  1.0  0.26007115887661963  0.20442345807651752  0.36685875560863246  Uiso  ?  O
Ce1  1.0  0.18567434313266806  0.18015172406298552  0.295705566961243  Uiso  ?  Ce
O1  1.0  0.2106390934414735  0.2082637229103846  0.3243164680930827  Uiso  ?  O
O1  1.0  0.2574021896998447  0.20342245294727487  0.32248582380638496  Uiso  ?  O
O1  1.0  0.21067390688838836  0.20371583984894662  0.27557480101246473  Uiso  ?  O
O1  1.0  0.26107368271954084  0.20518713538533523  0.272300384686026  Uiso  ?  O
Ce1  1.0  0.19014198525708992  0.17858477363451833  0.20144805175710842  Uiso  ?  Ce
O1  1.0  0.207946842864867  0.20648435940827403  0.22772724223950008  Uiso  ?  O
O1  1.0  0.25553814225380445  0.2026801700020532  0.22421229918798355  Uiso  ?  O
O1  1.0  0.21297563646955003  0.20657325768416573  0.17640438576829973  Uiso  ?  O
O1  1.0  0.25661791294348424  0.20525338582336203  0.18162421772843418  Uiso  ?  O
Ce1  1.0  0.18477820569306644  0.178847443802927  0.10541202067160811  Uiso  ?  Ce
Ce1  1.0  0.2346652537630374  0.18070051253281086  0.15127263737879557  Uiso  ?  Ce
O1  1.0  0.21103897426651852  0.20468786883488999  0.129107174644793  Uiso  ?  O
O1  1.0  0.25988787560932314  0.20417210018282372  0.12721044789549002  Uiso  ?  O
O1  1.0  0.21155242215627557  0.20240177596456294  0.08159886154958086  Uiso  ?  O
O1  1.0  0.25549258558946353  0.20327826811129907  0.08046818884108754  Uiso  ?  O
O1  1.0  0.35382789236997536  0.20304959953450466  0.8531173756618021  Uiso  ?  O
Ce1  1.0  0.2811604914076577  0.17884207887274856  0.7830832000416675  Uiso  ?  Ce
Ce1  1.0  0.3299652694886737  0.18118664453387648  0.8267965055693933  Uiso  ?  Ce
O1  1.0  0.3038217216495968  0.2030809429938422  0.8060642668378408  Uiso  ?  O
O1  1.0  0.3533591256148212  0.20527123246063736  0.8039655537498734  Uiso  ?  O
O1  1.0  0.30586335935295805  0.20118316865743133  0.7592646122912202  Uiso  ?  O
O1  1.0  0.35554432636241384  0.20475038395741496  0.7558222327636978  Uiso  ?  O
Ce1  1.0  0.28497859392413005  0.18330048876520152  0.6847928120127508  Uiso  ?  Ce
Ce1  1.0  0.3293912587851821  0.18069085287137007  0.7339023364572242  Uiso  ?  Ce
O1  1.0  0.30703786005921047  0.2037172313913742  0.7067893992783065  Uiso  ?  O
O1  1.0  0.35341119768797313  0.2044266689039233  0.7097995017084018  Uiso  ?  O
O1  1.0  0.30668544568871126  0.2054198734596687  0.6580112896378525  Uiso  ?  O
O1  1.0  0.35508919142786455  0.20550526755322537  0.6584167860875165  Uiso  ?  O
Ce1  1.0  0.2808501721432906  0.18082447716685435  0.5825457012139784  Uiso  ?  Ce
Ce1  1.0  0.33334761094225135  0.1811701233901473  0.6367912505314196  Uiso  ?  Ce
O1  1.0  0.30592654307093087  0.20776531517382138  0.607471817229095  Uiso  ?  O
O1  1.0  0.35636239520798185  0.201919385312871  0.6107986811596012  Uiso  ?  O
O1  1.0  0.30971382511569334  0.2006606713653108  0.5637957940736781  Uiso  ?  O
O1  1.0  0.35539301578692706  0.20553436218201096  0.5631351797014755  Uiso  ?  O
Ce1  1.0  0.28230649055972507  0.17960307538145875  0.49200619388171496  Uiso  ?  Ce
Ce1  1.0  0.3303421837497672  0.17953561083576272  0.5402471368385487  Uiso  ?  Ce
O1  1.0  0.3071429830754759  0.20182716157001832  0.5153790670872531  Uiso  ?  O
O1  1.0  0.35458748000203527  0.2048040629751759  0.5182997677508933  Uiso  ?  O
O1  1.0  0.30380127741799845  0.20362970456547536  0.4663898515074333  Uiso  ?  O
O1  1.0  0.35569124037691463  0.2042589554892805  0.46959381808053297  Uiso  ?  O
Ce1  1.0  0.28225677166257995  0.1811485538898707  0.3968322176618552  Uiso  ?  Ce
Ce1  1.0  0.3307786886901513  0.17818088956689304  0.4402875057331091  Uiso  ?  Ce
O1  1.0  0.30841086097807796  0.20369278270894098  0.4191053249939658  Uiso  ?  O
O1  1.0  0.3532917495067272  0.20470783051155114  0.4220692584041291  Uiso  ?  O
O1  1.0  0.30549941705794387  0.20801521581511068  0.3706570019937486  Uiso  ?  O
O1  1.0  0.353789175107336  0.20616333547328342  0.3720301005697773  Uiso  ?  O
Ce1  1.0  0.279781294494215  0.18110546346420622  0.29431869220545553  Uiso  ?  Ce
Ce1  1.0  0.3319421925571421  0.17891988817121138  0.34395801327233017  Uiso  ?  Ce
O1  1.0  0.30890526734216067  0.20406599518276222  0.3225575945668607  Uiso  ?  O
O1  1.0  0.3543250045496939  0.20221677620853784  0.3242447811164165  Uiso  ?  O
O1  1.0  0.3073888781497688  0.20352346495913637  0.2744694935611002  Uiso  ?  O
O1  1.0  0.3524506587643681  0.20572595984370326  0.273963819195205  Uiso  ?  O
Ce1  1.0  0.2838460114099797  0.1817723095422242  0.20189757126270472  Uiso  ?  Ce
Ce1  1.0  0.32989058631376583  0.18302597124608316  0.25217718795410693  Uiso  ?  Ce
O1  1.0  0.3057873569701631  0.20295046916284  0.22545711730876702  Uiso  ?  O
O1  1.0  0.3584326949692264  0.20318325550957675  0.22737784060706775  Uiso  ?  O
O1  1.0  0.30786843533171065  0.20521706123688227  0.178596060515713  Uiso  ?  O
O1  1.0  0.3536119112054743  0.20514483770786357  0.18008287587430494  Uiso  ?  O
Ce1  1.0  0.2835464756623811  0.18236835636047966  0.10508136523134512  Uiso  ?  Ce
Ce1  1.0  0.32835021658392566  0.17956544607738878  0.1562085536608153  Uiso  ?  Ce
O1  1.0  0.3069185333247807  0.20559561556407158  0.1294257121659402  Uiso  ?  O
O1  1.0  0.3555887460814081  0.20351793547139316  0.13308336494019807  Uiso  ?  O
O1  1.0  0.30735515261601115  0.2010952926622015  0.07913909222797604  Uiso  ?  O
O1  1.0  0.3532529970088093  0.20562655361170046  0.07989943735137281  Uiso  ?  O
Ce1  1.0  0.38100753585247926  0.18151569996320377  0.8773518382515794  Uiso  ?  Ce
Ce1  1.0  0.4254339721002736  0.1789669530303028  0.9255006024781187  Uiso  ?  Ce
O1  1.0  0.40439711166769454  0.20265625528584855  0.8983978430368019  Uiso  ?  O
O1  1.0  0.4516518752562721  0.20535092059678645  0.9005088265487748  Uiso  ?  O
O1  1.0  0.40087391309488335  0.2041488328597861  0.8490916917819398  Uiso  ?  O
O1  1.0  0.45064080892527414  0.20313821613670896  0.8518144412052552  Uiso  ?  O
Ce1  1.0  0.42604264056719987  0.17946178436425914  0.826165005401674  Uiso  ?  Ce
O1  1.0  0.40437955131349584  0.20348747859394575  0.8026431088235135  Uiso  ?  O
O1  1.0  0.45310756906576727  0.2042987806550434  0.8015691403949532  Uiso  ?  O
O1  1.0  0.4048569652516243  0.20338630463876733  0.7572661551918614  Uiso  ?  O
O1  1.0  0.45121359206536793  0.20189069107573182  0.7575033927346756  Uiso  ?  O
Ce1  1.0  0.38071989794702926  0.18131669432625025  0.6829723584982672  Uiso  ?  Ce
Ce1  1.0  0.4300740565359818  0.17919194169906202  0.7330539409275352  Uiso  ?  Ce
O1  1.0  0.4057891545548378  0.20513404254296505  0.7081841775514884  Uiso  ?  O
O1  1.0  0.44791281501815894  0.20422443207035057  0.7081974456469899  Uiso  ?  O
O1  1.0  0.4012177097617002  0.20675831638491676  0.6579331018515019  Uiso  ?  O
O1  1.0  0.45257595097977055  0.20416815522332307  0.6588640163879543  Uiso  ?  O
Ce1  1.0  0.38152904678326105  0.18070172656504946  0.5865300593988712  Uiso  ?  Ce
Ce1  1.0  0.4285092753091495  0.1785200786413688  0.6365622489724146  Uiso  ?  Ce
O1  1.0  0.40241042386322745  0.2060698465375603  0.6098306664358687  Uiso  ?  O
O1  1.0  0.45105027189764135  0.20827462659727633  0.6146990891463381  Uiso  ?  O
O1  1.0  0.4026490064453013  0.20766995925086884  0.561020098979377  Uiso  ?  O
O1  1.0  0.4485696388908782  0.2078801278657082  0.5627597978005561  Uiso  ?  O
Ce1  1.0  0.37861028571208893  0.18196051230259586  0.49115073491313604  Uiso  ?  Ce
Ce1  1.0  0.425327301787623  0.17854718500946912  0.5397333123530907  Uiso  ?  Ce
O1  1.0  0.4024692119109339  0.20258461546055503  0.5146614363431369  Uiso  ?  O
O1  1.0  0.4509806375289507  0.20938670248489696  0.515501844077334  Uiso  ?  O
O1  1.0  0.4025473850349653  0.20262113767610648  0.4663940615667003  Uiso  ?  O
O1  1.0  0.447189344650752  0.20162689163376826  0.46620870321910024  Uiso  ?  O
Ce1  1.0  0.37787911167057886  0.18056026391003066  0.39619052851219505  Uiso  ?  Ce
Ce1  1.0  0.426805241520442  0.18178620532332498  0.44182630904472225  Uiso  ?  Ce
O1  1.0  0.4017250095213635  0.20180994749914483  0.416597457955321  Uiso  ?  O
O1  1.0  0.45245659738151905  0.20440353543162476  0.4201211773173645  Uiso  ?  O
O1  1.0  0.40079955324173094  0.20559101487951917  0.3705458016476633  Uiso  ?  O
O1  1.0  0.45064356510473474  0.20496338373600087  0.37094811830623076  Uiso  ?  O
Ce1  1.0  0.3767364932036694  0.1781435511007563  0.30247588457411884  Uiso  ?  Ce
Ce1  1.0  0.42503008286150257  0.18032561318817408  0.3440061772119172  Uiso  ?  Ce
O1  1.0  0.40325065214311073  0.20534622883772186  0.3182480435635717  Uiso  ?  O
O1  1.0  0.450626693215434  0.2068835569895423  0.3218428945178333  Uiso  ?  O
O1  1.0  0.40167545105840774  0.20650710186060067  0.27303830967066867  Uiso  ?  O
O1  1.0  0.4503184319771354  0.20418966760024837  0.27401103224264123  Uiso  ?  O
Ce1  1.0  0.42732228482449053  0.18038282789635518  0.25100916277286006  Uiso  ?  Ce
O1  1.0  0.39978719491734965  0.20463489468659876  0.22676494754389417  Uiso  ?  O
O1  1.0  0.4518115344329779  0.20129301532086666  0.22604669420782517  Uiso  ?  O
O1  1.0  0.40145903099837477  0.20542673267909273  0.17757457693260026  Uiso  ?  O
O1  1.0  0.4518773910561579  0.2038679124280728  0.18349745743455564  Uiso  ?  O
Ce1  1.0  0.37964199940792526  0.1809543139624938  0.10643290180348867  Uiso  ?  Ce
Ce1  1.0  0.43092117117427986  0.17817296740235491  0.15728424233806423  Uiso  ?  Ce
O1  1.0  0.40358780000805416  0.2023557133128924  0.12861751098770977  Uiso  ?  O
O1  1.0  0.4499812928423387  0.20816327869947146  0.12764353410653145  Uiso  ?  O
O1  1.0  0.4029352478960765  0.20870672528144799  0.08365437280120211  Uiso  ?  O
O1  1.0  0.45227522510277796  0.20586561258375347  0.08371417433883245  Uiso  ?  O
Ce1  1.0  0.4742856505538765  0.18126798778139058  0.8750883322538247  Uiso  ?  Ce
Ce1  1.0  0.5228348811211393  0.1802762715905193  0.9249809695827603  Uiso  ?  Ce
O1  1.0  0.501545998935113  0.20398743649651901  0.8985250262725403  Uiso  ?  O
O1  1.0  0.548100736259401  0.20527087390263724  0.8989162294992967  Uiso  ?  O
O1  1.0  0.4989830005599926  0.2058745647396896  0.8495352624979421  Uiso  ?  O
O1  1.0  0.5461600823529437  0.20253098885441762  0.8521579672141905  Uiso  ?  O
Ce1  1.0  0.47802246681247534  0.17971275993922278  0.7793146856249497  Uiso  ?  Ce
Ce1  1.0  0.5220322847754105  0.1796137183951634  0.8267835667901376  Uiso  ?  Ce
O1  1.0  0.5011011214159161  0.2075956586914126  0.8074691189058681  Uiso  ?  O
O1  1.0  0.5445543144924282  0.20217102889454644  0.8028983601567701  Uiso  ?  O
O1  1.0  0.49794966187466305  0.2038852311588026  0.7591211501112322  Uiso  ?  O
O1  1.0  0.5462883869780016  0.2037846332927949  0.7565852293743793  Uiso  ?  O
Ce1  1.0  0.4730356436031987  0.18108787830715367  0.6838416649667449  Uiso  ?  Ce
Ce1  1.0  0.5252537314368416  0.18074018031139738  0.7294119467609578  Uiso  ?  Ce
O1  1.0  0.49698112015235196  0.20365309293388373  0.7063401039974095  Uiso  ?  O
O1  1.0  0.5503420012098809  0.2046233752080918  0.7084957961944225  Uiso  ?  O
O1  1.0  0.49769807613664846  0.20281566206823426  0.6630071348687742  Uiso  ?  O
O1  1.0  0.5460625754435546  0.20391013976756836  0.6619166371651765  Uiso  ?  O
Ce1  1.0  0.5235131326505603  0.18190053183897342  0.6348401785754912  Uiso  ?  Ce
O1  1.0  0.4981243161320237  0.20543521816524513  0.6114290987080341  Uiso  ?  O
O1  1.0  0.5465058383680811  0.20369001918383237  0.6117219243268567  Uiso  ?  O
O1  1.0  0.494245054631584  0.20474907990798388  0.5599735285636784  Uiso  ?  O
O1  1.0  0.5466000552035541  0.20738998976080414  0.5616944830644578  Uiso  ?  O
Ce1  1.0  0.47551368325864535  0.18001391555601684  0.4937604222596294  Uiso  ?  Ce
O1  1.0  0.5014128260279779  0.20315978186503317  0.5186604014405577  Uiso  ?  O
O1  1.0  0.5480819022850696  0.20405394594062587  0.5160514347049208  Uiso  ?  O
O1  1.0  0.5013314813739833  0.2020347736713146  0.4689105334810408  Uiso  ?  O
O1  1.0  0.5492134738103699  0.20651461518832712  0.4649933576597523  Uiso  ?  O
Ce1  1.0  0.47861791908652573  0.18091077746794518  0.3959104967937556  Uiso  ?  Ce
Ce1  1.0  0.5219840383869223  0.17879669905937742  0.4427357280114458  Uiso  ?  Ce
O1  1.0  0.4968258484788435  0.20086475743211343  0.41899315897284023  Uiso  ?  O
O1  1.0  0.5463951838723594  0.201237372089918  0.41872070986683907  Uiso  ?  O
O1  1.0  0.4999114270229285  0.20799840440669662  0.37153767320037845  Uiso  ?  O
O1  1.0  0.5475959441687683  0.2051974079586911  0.3737376647919379  Uiso  ?  O
Ce1  1.0  0.47525364378209173  0.1804863537192074  0.2973044840939143  Uiso  ?  Ce
Ce1  1.0  0.5233280329045065  0.182340546795919  0.34804381497793124  Uiso  ?  Ce
O1  1.0  0.498475090972347  0.20218828143078316  0.32440253964889576  Uiso  ?  O
O1  1.0  0.5476464305238653  0.2061089455972377  0.32008415531445433  Uiso  ?  O
O1  1.0  0.4996629354918046  0.2036971555441029  0.2739290816145589  Uiso  ?  O
O1  1.0  0.5498566326657683  0.20299761955905976  0.2756040248649391  Uiso  ?  O
Ce1  1.0  0.4767890907237272  0.18299672675594628  0.20047072517814363  Uiso  ?  Ce
Ce1  1.0  0.5261917600428365  0.17847062419386195  0.253510093736241  Uiso  ?  Ce
O1  1.0  0.4991468627292614  0.20027583250885703  0.2265871725981535  Uiso  ?  O
O1  1.0  0.5521503290701867  0.2051707600176335  0.2253151286603182  Uiso  ?  O
O1  1.0  0.5002227971061745  0.20659318085112202  0.175502300861768  Uiso  ?  O
O1  1.0  0.5440711531967394  0.20270801023777196  0.17756505769520414  Uiso  ?  O
Ce1  1.0  0.4747066792374648  0.18327948241260675  0.10392408641551232  Uiso  ?  Ce
Ce1  1.0  0.524814654629404  0.1810866846722389  0.1552575942058972  Uiso  ?  Ce
O1  1.0  0.4983107294757011  0.20764767738734166  0.12727191768009533  Uiso  ?  O
O1  1.0  0.5459087998139801  0.2040489113097417  0.1277652818554909  Uiso  ?  O
O1  1.0  0.5002716030557706  0.20400541858175042  0.08118557292362615  Uiso  ?  O
O1  1.0  0.5469906645406937  0.2055015417522654  0.08043037707477815  Uiso  ?  O
Ce1  1.0  0.568334631277918  0.1805374942984226  0.8768500980345988  Uiso  ?  Ce
Ce1  1.0  0.6237034243400937  0.1821684723755286  0.926177798530626  Uiso  ?  Ce
O1  1.0  0.5984381474057991  0.2061909369394827  0.8977367541140888  Uiso  ?  O
O1  1.0  0.643335435675384  0.20453261053826463  0.9003974412356384  Uiso  ?  O
O1  1.0  0.5958899125038641  0.20281900771483066  0.8535158307444846  Uiso  ?  O
O1  1.0  0.6428487518971812  0.2066847697558169  0.8490781045095325  Uiso  ?  O
Ce1  1.0  0.5726868973039352  0.1827454374855852  0.7816042017755263  Uiso  ?  Ce
Ce1  1.0  0.6209373143444399  0.1814515178553891  0.8296671663871111  Uiso  ?  Ce
O1  1.0  0.5957977540399384  0.2048129873664283  0.8044003851903507  Uiso  ?  O
O1  1.0  0.6440502393743239  0.20509558272893183  0.8039270362737566  Uiso  ?  O
O1  1.0  0.5970540808877167  0.20366655541224274  0.7533110840957532  Uiso  ?  O
O1  1.0  0.6454754032373479  0.20145960858223122  0.753025934414321  Uiso  ?  O
Ce1  1.0  0.567342325451544  0.18063007785114232  0.682737802025026  Uiso  ?  Ce
Ce1  1.0  0.619441808073271  0.18085505538789018  0.7331593650803209  Uiso  ?  Ce
O1  1.0  0.5971742814604097  0.20657036087249467  0.7073657581972246  Uiso  ?  O
O1  1.0  0.6436779075827623  0.20371974739454807  0.7093812980640708  Uiso  ?  O
O1  1.0  0.5980133208698417  0.20641959251786432  0.6587266514779547  Uiso  ?  O
O1  1.0  0.6449915738958985  0.20653901007059017  0.6599919652760756  Uiso  ?  O
Ce1  1.0  0.5688057055696518  0.1786987483780187  0.5906014558399515  Uiso  ?  Ce
Ce1  1.0  0.6212511325353238  0.17921501760495565  0.6356688667163595  Uiso  ?  Ce
O1  1.0  0.5943564508588652  0.20504806271912324  0.6104599841473258  Uiso  ?  O
O1  1.0  0.6470667503866365  0.20592548988119325  0.6124524250045008  Uiso  ?  O
O1  1.0  0.5949544030098177  0.2047442555258494  0.5622291223747732  Uiso  ?  O
O1  1.0  0.6453141003490095  0.20630588690309465  0.5620087215026726  Uiso  ?  O
Ce1  1.0  0.5696852802250246  0.17987159948275566  0.49568350224849883  Uiso  ?  Ce
Ce1  1.0  0.6217086053935813  0.18371272729434748  0.5401167109706971  Uiso  ?  Ce
O1  1.0  0.5938724635226452  0.20267536967844943  0.5144084601836723  Uiso  ?  O
O1  1.0  0.6473854404050348  0.20671691280151458  0.5181177985828029  Uiso  ?  O
O1  1.0  0.5952640360142465  0.20329552060275227  0.4640391423657569  Uiso  ?  O
O1  1.0  0.6439122116341601  0.20562675357391624  0.4635931840419699  Uiso  ?  O
Ce1  1.0  0.5706925666468332  0.17925987777921032  0.39477641785185413  Uiso  ?  Ce
O1  1.0  0.5930025658620673  0.2024757664322128  0.4196913408775627  Uiso  ?  O
O1  1.0  0.6443687571415382  0.20480097069132774  0.4177234281162777  Uiso  ?  O
O1  1.0  0.5959113131989421  0.20436908834773568  0.3710372455546459  Uiso  ?  O
O1  1.0  0.6443856691507038  0.20647329297011577  0.3694916782796953  Uiso  ?  O
Ce1  1.0  0.5687355012342905  0.18247469241720396  0.3008273507548378  Uiso  ?  Ce
Ce1  1.0  0.6206466080612164  0.1803040143240956  0.34689265692509996  Uiso  ?  Ce
O1  1.0  0.5929070687516276  0.20219566605212957  0.32309284226158186  Uiso  ?  O
O1  1.0  0.6449770801546003  0.2003986102131402  0.32348315081028794  Uiso  ?  O
O1  1.0  0.5986820764978716  0.20238568740609597  0.27412553826469815  Uiso  ?  O
O1  1.0  0.6418541219198408  0.20232597932621907  0.27557660646234083  Uiso  ?  O
Ce1  1.0  0.5710511570685834  0.17883068456528145  0.20307699068407947  Uiso  ?  Ce
Ce1  1.0  0.6170367341034544  0.18271956517296245  0.2479757841269954  Uiso  ?  Ce
O1  1.0  0.597219107226321  0.20537098576684745  0.22795662631884778  Uiso  ?  O
O1  1.0  0.6442705016775029  0.20168372530106377  0.22480108515345812  Uiso  ?  O
O1  1.0  0.5986186829599329  0.20287406676444963  0.18166901931908835  Uiso  ?  O
O1  1.0  0.6427846537688446  0.20268211075941556  0.17747798196240175  Uiso  ?  O
Ce1  1.0  0.5719220549852505  0.18081264806557631  0.10506968461465001  Uiso  ?  Ce
Ce1  1.0  0.6179654509534794  0.18112086250590773  0.15549171425867853  Uiso  ?  Ce
O1  1.0  0.5917016872150013  0.20264821471104197  0.13090897738102067  Uiso  ?  O
O1  1.0  0.6442555670961699  0.20375350593719913  0.12889445552645465  Uiso  ?  O
O1  1.0  0.5930919745396138  0.2022609574882849  0.07839166950907131  Uiso  ?  O
O1  1.0  0.6440171546016072  0.20499914034713912  0.08257201029624885  Uiso  ?  O
Ce1  1.0  0.6686863215706425  0.1783763910704485  0.8738806344229427  Uiso  ?  Ce
Ce1  1.0  0.7177575279858903  0.179440757004508  0.9251108188806446  Uiso  ?  Ce
O1  1.0  0.6936234147274631  0.20814925240988422  0.8998623696243988  Uiso  ?  O
O1  1.0  0.6912228800978162  0.206794496527685  0.8527680500171825  Uiso  ?  O
O1  1.0  0.7388583763732508  0.20588903732569563  0.8515069588015152  Uiso  ?  O
Ce1  1.0  0.6717222364314228  0.18504793002950115  0.7814907661906993  Uiso  ?  Ce
Ce1  1.0  0.716777290025741  0.17828384158453603  0.8293870825364763  Uiso  ?  Ce
O1  1.0  0.6920338540233094  0.20123320506438966  0.8017817367055564  Uiso  ?  O
O1  1.0  0.7381411906894194  0.20909772611790386  0.8047017558091569  Uiso  ?  O
O1  1.0  0.6927853583827627  0.20436709433458222  0.7544183232524554  Uiso  ?  O
O1  1.0  0.7372961874757354  0.2064402262141576  0.7573536433558467  Uiso  ?  O
Ce1  1.0  0.6669916811240902  0.18226919169916223  0.6830370094842542  Uiso  ?  Ce
Ce1  1.0  0.7161488017894962  0.1808675981605541  0.7323621234755032  Uiso  ?  Ce
O1  1.0  0.6922810605845118  0.20317402034783194  0.7087516968304814  Uiso  ?  O
O1  1.0  0.7407915135166946  0.20532814931481008  0.7089498988463917  Uiso  ?  O
O1  1.0  0.6904063210756319  0.20493929088877247  0.6614292063464788  Uiso  ?  O
O1  1.0  0.7436569721845164  0.20644157945843758  0.6605536471582885  Uiso  ?  O
Ce1  1.0  0.6683505545798222  0.17834206410912729  0.5917421564063549  Uiso  ?  Ce
Ce1  1.0  0.7138818995503451  0.18114212312031264  0.635241823354991  Uiso  ?  Ce
O1  1.0  0.6940324307805255  0.2047084975559984  0.6106496948860176  Uiso  ?  O
O1  1.0  0.7374811903889679  0.20344111526113304  0.6118278328768978  Uiso  ?  O
O1  1.0  0.6881136385309939  0.20481847997188346  0.5636102838618705  Uiso  ?  O
O1  1.0  0.7438424179368333  0.2041547761622773  0.5648047608076774  Uiso  ?  O
Ce1  1.0  0.6683890348599771  0.1811586671888251  0.49279332881904364  Uiso  ?  Ce
Ce1  1.0  0.714207904075492  0.18481146601191922  0.5397311458642442  Uiso  ?  Ce
O1  1.0  0.6925242026009736  0.2090443412064387  0.514243969233609  Uiso  ?  O
O1  1.0  0.7405108227092763  0.20658224560273028  0.5171218535662027  Uiso  ?  O
O1  1.0  0.6885184923697399  0.20434561299513068  0.46708758431121455  Uiso  ?  O
O1  1.0  0.7426747594522314  0.202555957249516  0.465419894285423  Uiso  ?  O
Ce1  1.0  0.6643980467663999  0.18102690888690495  0.3945426251881356  Uiso  ?  Ce
Ce1  1.0  0.7158972728298426  0.18042761995501655  0.44535520367611947  Uiso  ?  Ce
O1  1.0  0.6908391510090982  0.2077158328252081  0.42198042667737856  Uiso  ?  O
O1  1.0  0.7395435744719446  0.20779851940781494  0.42022964371716204  Uiso  ?  O
O1  1.0  0.6925592890449711  0.20321036029845443  0.3698776712061072  Uiso  ?  O
O1  1.0  0.7391003519080389  0.20549582859701515  0.36994860151639336  Uiso  ?  O
Ce1  1.0  0.6690229942298809  0.17956718239133962  0.29870629147223204  Uiso  ?  Ce
Ce1  1.0  0.7143066454881681  0.17985594234151778  0.3456341938394604  Uiso  ?  Ce
O1  1.0  0.6909659686740507  0.2018080718756123  0.3246555377182144  Uiso  ?  O
O1  1.0  0.7437216915831814  0.20600387117340965  0.3248107425419034  Uiso  ?  O
O1  1.0  0.693855442717531  0.2035130818658704  0.2765572390328286  Uiso  ?  O
O1  1.0  0.7401874488252735  0.20446534765276214  0.27551312310445053  Uiso  ?  O
Ce1  1.0  0.6676618585130839  0.18003645946098024  0.20219373608968133  Uiso  ?  Ce
Ce1  1.0  0.7146325311685893  0.1805926473024856  0.2521762641893024  Uiso  ?  Ce
O1  1.0  0.6928063416684868  0.2054954445724764  0.22623684469822075  Uiso  ?  O
O1  1.0  0.7396946569821609  0.2072541351538932  0.22417997501804307  Uiso  ?  O
O1  1.0  0.6915773045912279  0.20586998239456042  0.17890918461090619  Uiso  ?  O
O1  1.0  0.7394167131425567  0.20402124371516628  0.17816749298912937  Uiso  ?  O
Ce1  1.0  0.6708331869923261  0.17850233148939484  0.1073050764271395  Uiso  ?  Ce
Ce1  1.0  0.7149309218746033  0.17993975266939308  0.15035728061352333  Uiso  ?  Ce
O1  1.0  0.6908856992461503  0.20359499686933605  0.13166106135227576  Uiso  ?  O
O1  1.0  0.7398816365400752  0.20387935146880717  0.13080985662225475  Uiso  ?  O
O1  1.0  0.6934714539763839  0.20247595760853712  0.07995259696811965  Uiso  ?  O
O1  1.0  0.7388885989203757  0.20151761361530698  0.08052028640596469  Uiso  ?  O
Ce1  1.0  0.7647725492262878  0.18282455487916724  0.8806307806471514  Uiso  ?  Ce
Ce1  1.0  0.7657424906122134  0.17961838161997845  0.780233896777923  Uiso  ?  Ce
O1  1.0  0.78989238018521  0.2017472417439638  0.8048066285003191  Uiso  ?  O
O1  1.0  0.7891536398601132  0.20599631029122506  0.7560340159214305  Uiso  ?  O
Ce1  1.0  0.7628971907456743  0.18114471170761964  0.6832117942366971  Uiso  ?  Ce
Ce1  1.0  0.8124450958507257  0.18089853765766808  0.7310291095451452  Uiso  ?  Ce
O1  1.0  0.7910327638071843  0.20407985335701576  0.7089100506066756  Uiso  ?  O
O1  1.0  0.789130622978494  0.20372589954501455  0.6580953850885237  Uiso  ?  O
Ce1  1.0  0.7630467235842555  0.182355360132323  0.5877803031445475  Uiso  ?  Ce
Ce1  1.0  0.8122524751360004  0.179712599959754  0.633993154158212  Uiso  ?  Ce
O1  1.0  0.7856994469934915  0.20566872764335478  0.6144338483311829  Uiso  ?  O
O1  1.0  0.7879458390968561  0.20350183328206756  0.5625844120492803  Uiso  ?  O
Ce1  1.0  0.7654033041144166  0.17859787988717893  0.48942843740079767  Uiso  ?  Ce
Ce1  1.0  0.81337841614512  0.1812008238757424  0.541605804415648  Uiso  ?  Ce
O1  1.0  0.7903581630603246  0.20449167728995624  0.5150873863102399  Uiso  ?  O
O1  1.0  0.7886277277149475  0.20248308081745714  0.46748366762088206  Uiso  ?  O
Ce1  1.0  0.7663389917403336  0.18022893420051322  0.39767220441450446  Uiso  ?  Ce
Ce1  1.0  0.8123527513258214  0.18017949742629524  0.44542285892264727  Uiso  ?  Ce
O1  1.0  0.7888264005077452  0.20471094126683134  0.42279070385522527  Uiso  ?  O
O1  1.0  0.7890498338641461  0.20454435596278112  0.3734297901923212  Uiso  ?  O
Ce1  1.0  0.7649334378691096  0.17925246642028902  0.29900078798387314  Uiso  ?  Ce
Ce1  1.0  0.8156643693833447  0.17856303710281987  0.3457628602394725  Uiso  ?  Ce
O1  1.0  0.7884157781810053  0.2031428665876123  0.3247325310636885  Uiso  ?  O
O1  1.0  0.7866437745165258  0.20445498976184281  0.27341218507471576  Uiso  ?  O
Ce1  1.0  0.7644782022103297  0.1800503475284117  0.19969537431033949  Uiso  ?  Ce
Ce1  1.0  0.8104117894879335  0.17892359194838203  0.25202236419294494  Uiso  ?  Ce
O1  1.0  0.7886369301745093  0.20133888051646515  0.2283072804989819  Uiso  ?  O
O1  1.0  0.7885955481031233  0.20367234055584377  0.17558240312402168  Uiso  ?  O
Ce1  1.0  0.7639171286002754  0.18197611661675425  0.1068876121336814  Uiso  ?  Ce
Ce1  1.0  0.8134403184106606  0.18278257410442303  0.15225876167620017  Uiso  ?  Ce
O1  1.0  0.7885625799978987  0.20746479927034894  0.13123310536312463  Uiso  ?  O
O1  1.0  0.7870183770069965  0.20365349003514094  0.08322666755518345  Uiso  ?  O
