data_global
_audit_creation_method 'Generated by Python Script'

_symmetry_space_group_name_H-M 'P 1'
_symmetry_Int_Tables_number 1
_symmetry_cell_setting triclinic
loop_
_symmetry_equiv_pos_as_xyz
  'x, y, z'

_cell_length_a    63.73154530169912
_cell_length_b    63.73154530169912
_cell_length_c    63.73154530169912
_cell_angle_alpha 90.0
_cell_angle_beta  90.0
_cell_angle_gamma 90.0

loop_
_atom_site_label
_atom_site_occupancy
_atom_site_fract_x
_atom_site_fract_y
_atom_site_fract_z
_atom_site_adp_type
_atom_site_U_iso_or_equiv
_atom_site_type_symbol
Pt1  1.0  0.5163551254410401  0.4521866530843138  0.5664726466310296  Uiso  ?  Pt
Pt1  1.0  0.48933998888812913  0.4867883241356975  0.6116076966103815  Uiso  ?  Pt
Pt1  1.0  0.47867940537223724  0.44878434942996737  0.5872875067900163  Uiso  ?  Pt
Pt1  1.0  0.47907087795492714  0.45174855502044625  0.6289130199363249  Uiso  ?  Pt
Pt1  1.0  0.4544344902894841  0.48752649006661664  0.6302780184199456  Uiso  ?  Pt
Pt1  1.0  0.4414265572885466  0.4513757962615371  0.6076403343363467  Uiso  ?  Pt
Pt1  1.0  0.4015663248717526  0.4516427306890392  0.6336233992651463  Uiso  ?  Pt
Pt1  1.0  0.5544469759289634  0.44961131051119785  0.49935712121447984  Uiso  ?  Pt
Pt1  1.0  0.5190302979310626  0.45238109880565475  0.5241447760899363  Uiso  ?  Pt
Pt1  1.0  0.5313735024369118  0.486464733497264  0.5031343811330521  Uiso  ?  Pt
Pt1  1.0  0.5178480066257153  0.451503618213094  0.4796597426698912  Uiso  ?  Pt
Pt1  1.0  0.5301151877330307  0.48880299435061353  0.5444557896491533  Uiso  ?  Pt
Pt1  1.0  0.4912411726416317  0.48237321256356763  0.5648992989862615  Uiso  ?  Pt
Pt1  1.0  0.4901537636557088  0.48839662203654777  0.5214763597573633  Uiso  ?  Pt
Pt1  1.0  0.47884217854268857  0.4512471381467031  0.5004549338715971  Uiso  ?  Pt
Pt1  1.0  0.4802687252081809  0.4517875708285499  0.5439443115045122  Uiso  ?  Pt
Pt1  1.0  0.4406285303095194  0.4488919380487254  0.5690900168426785  Uiso  ?  Pt
Pt1  1.0  0.4516757451232307  0.48484745451419536  0.5425694498060845  Uiso  ?  Pt
Pt1  1.0  0.4401520538094424  0.45259231661492355  0.5199227497199826  Uiso  ?  Pt
Pt1  1.0  0.45214683592498034  0.48700262309226017  0.5832464122082696  Uiso  ?  Pt
Pt1  1.0  0.41501536143154044  0.4869617782826677  0.608172017365805  Uiso  ?  Pt
Pt1  1.0  0.4152090812824032  0.48440058885275133  0.5634804597515405  Uiso  ?  Pt
Pt1  1.0  0.4044619748463694  0.4533566157999407  0.5399545727588209  Uiso  ?  Pt
Pt1  1.0  0.40258168881282164  0.45095525884986765  0.5849947416760036  Uiso  ?  Pt
Pt1  1.0  0.36856915733348256  0.45205198725683676  0.6102845695928095  Uiso  ?  Pt
Pt1  1.0  0.3774726040155176  0.48891472681339765  0.584628601285695  Uiso  ?  Pt
Pt1  1.0  0.366371652286685  0.449498649469652  0.5632583039875038  Uiso  ?  Pt
Pt1  1.0  0.37708212611596875  0.48761594442991  0.6285447621433464  Uiso  ?  Pt
Pt1  1.0  0.3427846018104489  0.48546160011060513  0.6118623326345192  Uiso  ?  Pt
Pt1  1.0  0.32737670703209687  0.4491085142486603  0.5883540020702546  Uiso  ?  Pt
Pt1  1.0  0.32671421242372817  0.45088379240792653  0.6299623997377273  Uiso  ?  Pt
Pt1  1.0  0.49188804981504114  0.48476836751763946  0.48015899774851684  Uiso  ?  Pt
Pt1  1.0  0.4782054823295369  0.4524469197087481  0.45830405021418963  Uiso  ?  Pt
Pt1  1.0  0.44150966134684355  0.4485877499322611  0.4766396713950806  Uiso  ?  Pt
Pt1  1.0  0.4544624009186624  0.4862425643860184  0.45791264417373045  Uiso  ?  Pt
Pt1  1.0  0.4556033074286866  0.48676174794222243  0.501175497219579  Uiso  ?  Pt
Pt1  1.0  0.4173274192340814  0.48690853923725114  0.5196205717330988  Uiso  ?  Pt
Pt1  1.0  0.41541954607043546  0.48598199848088935  0.47739045589618445  Uiso  ?  Pt
Pt1  1.0  0.4050861302307045  0.45099698920105336  0.4572921778364224  Uiso  ?  Pt
Pt1  1.0  0.40347580867799454  0.4511092964484029  0.5004350005523399  Uiso  ?  Pt
Pt1  1.0  0.3655205539247218  0.4505553533500079  0.5218171651212905  Uiso  ?  Pt
Pt1  1.0  0.38184535431352346  0.4821393206894526  0.5020524225082841  Uiso  ?  Pt
Pt1  1.0  0.365674324276023  0.4521107082555675  0.478855705064033  Uiso  ?  Pt
Pt1  1.0  0.37877709107785174  0.48648473842033096  0.5412546815026672  Uiso  ?  Pt
Pt1  1.0  0.34150509283236047  0.4858116718331443  0.5630055604887093  Uiso  ?  Pt
Pt1  1.0  0.34171662336552033  0.48362546796708394  0.5214565409450888  Uiso  ?  Pt
Pt1  1.0  0.3299569271601957  0.45097833643974716  0.5015600179366865  Uiso  ?  Pt
Pt1  1.0  0.32953649171798577  0.45210501786192137  0.5424805278101996  Uiso  ?  Pt
Pt1  1.0  0.29178474147985034  0.4506955036251661  0.5639691275074361  Uiso  ?  Pt
Pt1  1.0  0.3034299198735853  0.48493387809276084  0.5428448843007493  Uiso  ?  Pt
Pt1  1.0  0.29261577321856747  0.4497726377317673  0.5216092569411457  Uiso  ?  Pt
Pt1  1.0  0.3039012702117541  0.4861841794219402  0.5873392849540909  Uiso  ?  Pt
Pt1  1.0  0.37775525723660885  0.4851281986252177  0.4559236517940274  Uiso  ?  Pt
Pt1  1.0  0.3420875301697045  0.48357909971291674  0.48038742072369084  Uiso  ?  Pt
Pt1  1.0  0.3306462793715283  0.45240481524333226  0.4529179987663947  Uiso  ?  Pt
Pt1  1.0  0.2907707989535564  0.45210798845739525  0.47630999170300165  Uiso  ?  Pt
Pt1  1.0  0.3037886978056346  0.4880855925166864  0.4547691103354369  Uiso  ?  Pt
Pt1  1.0  0.3027492096502259  0.48674010258560513  0.4973170000054421  Uiso  ?  Pt
Pt1  1.0  0.26480447030873633  0.48757088945954713  0.5190783705568701  Uiso  ?  Pt
Pt1  1.0  0.26789567344189585  0.48489182228591604  0.47586421937067297  Uiso  ?  Pt
Pt1  1.0  0.2544762986269176  0.4487079320762546  0.500094567752454  Uiso  ?  Pt
Pt1  1.0  0.5407695928618161  0.5234816866060067  0.522434793755192  Uiso  ?  Pt
Pt1  1.0  0.5045660461402133  0.5232265958052439  0.5443003535663394  Uiso  ?  Pt
Pt1  1.0  0.50737364146853  0.5240886363608402  0.5871650925593686  Uiso  ?  Pt
Pt1  1.0  0.46800992149664294  0.5218113884903187  0.6073756359180738  Uiso  ?  Pt
Pt1  1.0  0.4662347594877526  0.5233171162678406  0.5659767384694127  Uiso  ?  Pt
Pt1  1.0  0.42920581827640236  0.5193285552460235  0.5872283799751447  Uiso  ?  Pt
Pt1  1.0  0.4297593447300494  0.5216013957433492  0.6312009871648933  Uiso  ?  Pt
Pt1  1.0  0.39189525894429766  0.5259224960960716  0.6102507444031275  Uiso  ?  Pt
Pt1  1.0  0.3529926660436799  0.5212681421188348  0.6295624399673713  Uiso  ?  Pt
Pt1  1.0  0.542480666828813  0.5204982350303489  0.47912782980875446  Uiso  ?  Pt
Pt1  1.0  0.5069686667671389  0.5231257410125705  0.45680204809105895  Uiso  ?  Pt
Pt1  1.0  0.502974763772267  0.5205493931413981  0.5017564666693021  Uiso  ?  Pt
Pt1  1.0  0.46748253581021526  0.5218366658424454  0.5200939676768994  Uiso  ?  Pt
Pt1  1.0  0.4651603571207371  0.5198457966338178  0.4766081635289408  Uiso  ?  Pt
Pt1  1.0  0.4302193590131861  0.5228436811133289  0.4967267322768847  Uiso  ?  Pt
Pt1  1.0  0.4279978202227114  0.523142528382129  0.5431360306981355  Uiso  ?  Pt
Pt1  1.0  0.38968262839955214  0.519338824939606  0.5685069207178859  Uiso  ?  Pt
Pt1  1.0  0.390482217412476  0.5213889433238462  0.5213398429072964  Uiso  ?  Pt
Pt1  1.0  0.35690061617984803  0.5216310837522233  0.5440489433857573  Uiso  ?  Pt
Pt1  1.0  0.3529084091518723  0.5238111002571062  0.5870740308725538  Uiso  ?  Pt
Pt1  1.0  0.3165082178447195  0.5223511901597757  0.6065629539070384  Uiso  ?  Pt
Pt1  1.0  0.3170720277756619  0.5211614462583173  0.5668431260930136  Uiso  ?  Pt
Pt1  1.0  0.42749504804364724  0.5242985339470001  0.4545001100660641  Uiso  ?  Pt
Pt1  1.0  0.3928202615739878  0.5208844645558967  0.47714826234413765  Uiso  ?  Pt
Pt1  1.0  0.35246841730308687  0.5222694851782719  0.45514237642284266  Uiso  ?  Pt
Pt1  1.0  0.3530710522296013  0.522487957141029  0.4998910378966417  Uiso  ?  Pt
Pt1  1.0  0.31573733011167876  0.5199648347972352  0.5198014481956424  Uiso  ?  Pt
Pt1  1.0  0.32002757683808564  0.522319704749201  0.47684003502671635  Uiso  ?  Pt
Pt1  1.0  0.277006572087742  0.5207245516215142  0.49945968958481557  Uiso  ?  Pt
Pt1  1.0  0.27743052399662405  0.5248150562622622  0.5405228148734895  Uiso  ?  Pt
Pt1  1.0  0.2799944164867678  0.5231342485230394  0.45591815756763787  Uiso  ?  Pt
Pt1  1.0  0.516435704872266  0.5576567516878673  0.5214060008618979  Uiso  ?  Pt
Pt1  1.0  0.516226072071243  0.5598939160911542  0.47587884174599027  Uiso  ?  Pt
Pt1  1.0  0.4810291271561122  0.5569342387248664  0.5000983578640987  Uiso  ?  Pt
Pt1  1.0  0.4810820692141949  0.5570957985204442  0.5440655425622487  Uiso  ?  Pt
Pt1  1.0  0.44018605278751055  0.5594172569134135  0.5672136898522325  Uiso  ?  Pt
Pt1  1.0  0.437792402639409  0.55570332503578  0.5245832081835763  Uiso  ?  Pt
Pt1  1.0  0.40423162556575787  0.5553293275338871  0.5443476624139189  Uiso  ?  Pt
Pt1  1.0  0.4060547108805758  0.5567740219991328  0.5903970402309531  Uiso  ?  Pt
Pt1  1.0  0.3641841882084379  0.5536928823622725  0.609352736278338  Uiso  ?  Pt
Pt1  1.0  0.3645455917114041  0.5551367618965457  0.5653887531893041  Uiso  ?  Pt
Pt1  1.0  0.3262987960121662  0.557572062991896  0.58564864066295  Uiso  ?  Pt
Pt1  1.0  0.5044518244512024  0.5224113218270314  0.41167653017794104  Uiso  ?  Pt
Pt1  1.0  0.4673448670430794  0.5181783017932865  0.4372688847043116  Uiso  ?  Pt
Pt1  1.0  0.47152306559116247  0.5240107977083162  0.39178834333941165  Uiso  ?  Pt
Pt1  1.0  0.4760616843969985  0.559499232350959  0.45637215025878425  Uiso  ?  Pt
Pt1  1.0  0.44224486025690013  0.5594914518027189  0.4814031258851398  Uiso  ?  Pt
Pt1  1.0  0.4402774599176781  0.556663623691529  0.4341734378944821  Uiso  ?  Pt
Pt1  1.0  0.4312794056355862  0.5227344074253574  0.41236380226469366  Uiso  ?  Pt
Pt1  1.0  0.40670849613704624  0.5563146449382261  0.4545077113102295  Uiso  ?  Pt
Pt1  1.0  0.3906017789228457  0.5212959827190481  0.4338056197233383  Uiso  ?  Pt
Pt1  1.0  0.4039179996129486  0.5553545551579633  0.49944764349501913  Uiso  ?  Pt
Pt1  1.0  0.36475165204341636  0.5562189472166593  0.5244230170183791  Uiso  ?  Pt
Pt1  1.0  0.3698284728749381  0.5564766317445534  0.47679045384527396  Uiso  ?  Pt
Pt1  1.0  0.324504685525641  0.5596020842564772  0.49917919825103696  Uiso  ?  Pt
Pt1  1.0  0.32755327675059426  0.5580703645057564  0.5424508647868643  Uiso  ?  Pt
Pt1  1.0  0.430453102289757  0.5224814048566532  0.37005122789318584  Uiso  ?  Pt
Pt1  1.0  0.3903595978095334  0.5211942521516288  0.3913128139688438  Uiso  ?  Pt
Pt1  1.0  0.4020845934480601  0.5577350722127093  0.40819915324904515  Uiso  ?  Pt
Pt1  1.0  0.3658318340699881  0.5584827566181225  0.437190761057701  Uiso  ?  Pt
Pt1  1.0  0.36685971349880714  0.5562339214594431  0.3895756251142971  Uiso  ?  Pt
Pt1  1.0  0.35289301317912625  0.5196923525837711  0.36739589079785484  Uiso  ?  Pt
Pt1  1.0  0.3544594531440527  0.5196326212285883  0.41033581197375096  Uiso  ?  Pt
Pt1  1.0  0.3155327753811691  0.5241386000424841  0.4351031856621146  Uiso  ?  Pt
Pt1  1.0  0.3266741867616776  0.5579509993717545  0.4172869048900778  Uiso  ?  Pt
Pt1  1.0  0.3155791775730796  0.5230067591425841  0.391198688731688  Uiso  ?  Pt
Pt1  1.0  0.32819517701890166  0.5580943981446199  0.45598448528314006  Uiso  ?  Pt
Pt1  1.0  0.45404220031349174  0.5940927651778397  0.4985096147379527  Uiso  ?  Pt
Pt1  1.0  0.41668176631016884  0.595234964527617  0.5203721504286853  Uiso  ?  Pt
Pt1  1.0  0.41849320380211513  0.5926497329971414  0.4815551324899307  Uiso  ?  Pt
Pt1  1.0  0.37683475485596757  0.5925454419894244  0.5005109023501289  Uiso  ?  Pt
Pt1  1.0  0.3748386783223088  0.5935714192706533  0.5457150317284594  Uiso  ?  Pt
Pt1  1.0  0.37863739057641266  0.5938231369886623  0.457327138363243  Uiso  ?  Pt
O1  1.0  0.16224666142649036  0.3784799309987065  0.12922555798456797  Uiso  ?  O
O1  1.0  0.18001845862675345  0.3391226735375557  0.17386646221203367  Uiso  ?  O
O1  1.0  0.19974615313497698  0.3361999805229672  0.20463160939056635  Uiso  ?  O
O1  1.0  0.16910129025644874  0.34555898483857683  0.2272397646700717  Uiso  ?  O
O1  1.0  0.3118290178619372  0.34465503163432404  0.1286350725764182  Uiso  ?  O
O1  1.0  0.3221425470152824  0.3849073651653474  0.12619312991964682  Uiso  ?  O
Ce1  1.0  0.2459403978183796  0.34059211425936076  0.15163244154031877  Uiso  ?  Ce
O1  1.0  0.2782199103809662  0.35405182899485615  0.1558475539462504  Uiso  ?  O
O1  1.0  0.2210670017615235  0.36611725027532593  0.14393769503170153  Uiso  ?  O
O1  1.0  0.24331034416998212  0.36610367721339815  0.17485596646303453  Uiso  ?  O
O1  1.0  0.28799094555872007  0.3958187447314032  0.15246992443032842  Uiso  ?  O
O1  1.0  0.2316296486803048  0.406762222717316  0.1345008035305945  Uiso  ?  O
O1  1.0  0.2531343035090553  0.40486091290426757  0.1725178618788123  Uiso  ?  O
Ce1  1.0  0.18382862185634435  0.3500722158713001  0.13923117552395323  Uiso  ?  Ce
Ce1  1.0  0.16160185194420637  0.4057367300277781  0.15798853258859377  Uiso  ?  Ce
Ce1  1.0  0.2227623617097884  0.389562481350191  0.16794339501326663  Uiso  ?  Ce
Ce1  1.0  0.17549831150543677  0.3596484285897114  0.19561997608861267  Uiso  ?  Ce
O1  1.0  0.1856745131030859  0.3787478363003919  0.16569959301277856  Uiso  ?  O
O1  1.0  0.21104663139588267  0.37528407560254606  0.20100289225847032  Uiso  ?  O
O1  1.0  0.17593986313614593  0.3872607043100089  0.22327184255085783  Uiso  ?  O
O1  1.0  0.22237098549208237  0.3332370628896408  0.24024016188132036  Uiso  ?  O
O1  1.0  0.19092868901000612  0.34388670838534724  0.26232691197402075  Uiso  ?  O
O1  1.0  0.21530016076837952  0.3454967900103905  0.29624845405681915  Uiso  ?  O
O1  1.0  0.1815036172428104  0.3544507557547122  0.3223550736184531  Uiso  ?  O
O1  1.0  0.43737318455826374  0.3612102268945103  0.14953056718574148  Uiso  ?  O
Ce1  1.0  0.3455944276867003  0.3581327857963097  0.1329368817675704  Uiso  ?  Ce
Ce1  1.0  0.4045687190793264  0.34545058496345343  0.1450338886617025  Uiso  ?  Ce
O1  1.0  0.33553502764906556  0.3409796314645932  0.1620456305315543  Uiso  ?  O
O1  1.0  0.36013229842269845  0.3446740117367275  0.20180854967316908  Uiso  ?  O
O1  1.0  0.38131327569525036  0.37014133254802173  0.13632641567963114  Uiso  ?  O
O1  1.0  0.40185357638704544  0.3711846991310362  0.17392692462896528  Uiso  ?  O
O1  1.0  0.3481638647768986  0.38144821819178015  0.1602500641827721  Uiso  ?  O
O1  1.0  0.36794147140008304  0.38265623988518166  0.19497198481638095  Uiso  ?  O
Ce1  1.0  0.2798184910299671  0.3829069456198987  0.17900258183693343  Uiso  ?  Ce
Ce1  1.0  0.3349257296723291  0.3707287402949933  0.19032111295277243  Uiso  ?  Ce
Ce1  1.0  0.2942311715831973  0.3370544033787777  0.2204562145031692  Uiso  ?  Ce
O1  1.0  0.30200595774850725  0.35601863663489797  0.1887794292628017  Uiso  ?  O
O1  1.0  0.3282665095941645  0.35352218976834204  0.22152712413695577  Uiso  ?  O
O1  1.0  0.26777314039711514  0.36218688167720964  0.2136865512683487  Uiso  ?  O
O1  1.0  0.2920521256889858  0.36215738203447745  0.24633932707242287  Uiso  ?  O
O1  1.0  0.3113410533635345  0.3943251186016999  0.1826253727593967  Uiso  ?  O
O1  1.0  0.3354647597647807  0.3945681807076863  0.2207969170096484  Uiso  ?  O
O1  1.0  0.27959234783387565  0.40571815253058197  0.20555954638490023  Uiso  ?  O
O1  1.0  0.3030475963944322  0.4035965814374282  0.24082747927735454  Uiso  ?  O
Ce1  1.0  0.23625673704537123  0.3493154137446105  0.20994565444852875  Uiso  ?  Ce
Ce1  1.0  0.20723526602111678  0.4003532057025716  0.22801379942241956  Uiso  ?  Ce
Ce1  1.0  0.2666715391641855  0.38949176816365777  0.238087465285957  Uiso  ?  Ce
Ce1  1.0  0.22543622754481119  0.3582136202278308  0.2686882023386895  Uiso  ?  Ce
O1  1.0  0.2317586037906893  0.3732057298687024  0.23487903414396116  Uiso  ?  O
O1  1.0  0.25968407011459743  0.3735885072913934  0.27133770531581153  Uiso  ?  O
O1  1.0  0.20131691910337315  0.3814280952841481  0.25838090995458884  Uiso  ?  O
O1  1.0  0.2258168972317411  0.3854132660979642  0.29445401310921915  Uiso  ?  O
O1  1.0  0.24430779310757816  0.41754250338155896  0.2306559030375536  Uiso  ?  O
O1  1.0  0.26815752154852734  0.41498837019694257  0.26855749850460653  Uiso  ?  O
Ce1  1.0  0.1686675310982573  0.3723405333233584  0.2562902541528504  Uiso  ?  Ce
Ce1  1.0  0.19877991181845786  0.4114851145868938  0.28681344603256925  Uiso  ?  Ce
Ce1  1.0  0.15909357769065796  0.3822648412943986  0.3135661366758405  Uiso  ?  Ce
O1  1.0  0.16645265869103418  0.3964543033452814  0.28226405916319786  Uiso  ?  O
O1  1.0  0.19018815665735073  0.3960787249291268  0.3169719578335918  Uiso  ?  O
Ce1  1.0  0.3772535522211658  0.39913218533950084  0.16406175308310075  Uiso  ?  Ce
Ce1  1.0  0.3206257901843505  0.4099385788538933  0.15031953773456552  Uiso  ?  Ce
O1  1.0  0.24129283416948574  0.3425742207024978  0.3330390744526163  Uiso  ?  O
O1  1.0  0.26361380333353807  0.34206818369686026  0.3683776003981817  Uiso  ?  O
Ce1  1.0  0.17060757901528378  0.3414714251865625  0.35495312938791973  Uiso  ?  Ce
O1  1.0  0.20411510671110505  0.3506678185293548  0.3561654736149885  Uiso  ?  O
O1  1.0  0.22951420399227185  0.3497033061512874  0.39350814082938457  Uiso  ?  O
O1  1.0  0.16940779145867904  0.36400609867098227  0.3814187013886106  Uiso  ?  O
O1  1.0  0.19368401214941894  0.36126242468615205  0.4149237818140052  Uiso  ?  O
Ce1  1.0  0.1629553100487223  0.3496698372765167  0.4128348697845192  Uiso  ?  Ce
O1  1.0  0.15991041127415886  0.37208261684160615  0.437650224862961  Uiso  ?  O
O1  1.0  0.5521991018342051  0.33902451841689646  0.17213812262053774  Uiso  ?  O
Ce1  1.0  0.4610873301758919  0.33445352743854506  0.1557276577249824  Uiso  ?  Ce
O1  1.0  0.4944804935192306  0.34519878332198306  0.15633323591136153  Uiso  ?  O
O1  1.0  0.5174290319805842  0.34735139278161603  0.19652645277398512  Uiso  ?  O
O1  1.0  0.46015346860389705  0.359642144750615  0.1839994413844244  Uiso  ?  O
O1  1.0  0.48475435631989966  0.3561983940656865  0.21677336864179367  Uiso  ?  O
Ce1  1.0  0.39398637980332035  0.3584735416080653  0.2080697135266967  Uiso  ?  Ce
Ce1  1.0  0.45210509266019105  0.3422492538011097  0.21526498588967638  Uiso  ?  Ce
O1  1.0  0.3830236491994354  0.34170635995173565  0.23526413040152758  Uiso  ?  O
O1  1.0  0.4082417993646139  0.33890621409466043  0.271078004820618  Uiso  ?  O
O1  1.0  0.42577790355706846  0.3708086193461679  0.20665819265136165  Uiso  ?  O
O1  1.0  0.44869119633773097  0.36938167632732904  0.242962474123257  Uiso  ?  O
O1  1.0  0.39296261133691046  0.3796382618763374  0.23135117211806783  Uiso  ?  O
O1  1.0  0.41475202332020783  0.3808267244502213  0.26231034547312715  Uiso  ?  O
Ce1  1.0  0.32631674718100545  0.3765710807657602  0.25046303759981886  Uiso  ?  Ce
Ce1  1.0  0.3835609997610401  0.3637477505711152  0.26328176701904327  Uiso  ?  Ce
Ce1  1.0  0.3397829865995134  0.3342815467152719  0.2899827127251537  Uiso  ?  Ce
O1  1.0  0.3493458136251018  0.35089888930939167  0.2575768650143585  Uiso  ?  O
O1  1.0  0.37060894133703676  0.3474070043752703  0.2934319060596389  Uiso  ?  O
O1  1.0  0.31383340429674  0.36278297520351843  0.28342578526300893  Uiso  ?  O
O1  1.0  0.34087362376027225  0.3569104613207737  0.31674467040489196  Uiso  ?  O
O1  1.0  0.3616973582052841  0.39109013946647464  0.25262837321953346  Uiso  ?  O
O1  1.0  0.3812835656026964  0.3906633203748203  0.2899001729201059  Uiso  ?  O
O1  1.0  0.3289663639766054  0.4005353565974563  0.27460674617072234  Uiso  ?  O
O1  1.0  0.35007951468808185  0.4002896279607833  0.31203122666805316  Uiso  ?  O
Ce1  1.0  0.2841013417272529  0.34837806337819616  0.27917911686689423  Uiso  ?  Ce
Ce1  1.0  0.257669213768563  0.3972462071960115  0.29939819150055585  Uiso  ?  Ce
Ce1  1.0  0.31587633121554803  0.386474764027891  0.30993279415496744  Uiso  ?  Ce
Ce1  1.0  0.2731490464745493  0.35740010248573595  0.3367730870257521  Uiso  ?  Ce
O1  1.0  0.2827984108020155  0.3764565796195689  0.30537723323276245  Uiso  ?  O
O1  1.0  0.30597679290323593  0.37074778638977635  0.3372040654196641  Uiso  ?  O
O1  1.0  0.24730720922208566  0.3827188645700432  0.3285936258600811  Uiso  ?  O
O1  1.0  0.27226273497916254  0.38128527709264376  0.3633594195890611  Uiso  ?  O
O1  1.0  0.29127363364566267  0.41330819370920147  0.2975682563311744  Uiso  ?  O
O1  1.0  0.31812932715793224  0.4108834719509127  0.33573526889881244  Uiso  ?  O
Ce1  1.0  0.21463964329414822  0.3679625385114606  0.32679237304663633  Uiso  ?  Ce
Ce1  1.0  0.24925025097584655  0.40756649145240037  0.35440641138611934  Uiso  ?  Ce
Ce1  1.0  0.20248843018006454  0.37767577850665335  0.38207464284719905  Uiso  ?  Ce
O1  1.0  0.2154046954932248  0.39217916956388205  0.3482059593176935  Uiso  ?  O
O1  1.0  0.23972914050100375  0.39218979674338167  0.3877129895273726  Uiso  ?  O
O1  1.0  0.1814187868076538  0.4029672066925886  0.3751274921370255  Uiso  ?  O
O1  1.0  0.205798950760324  0.40525142542258324  0.4114640751909111  Uiso  ?  O
O1  1.0  0.169333239168624  0.4159630944548159  0.4339314472424424  Uiso  ?  O
O1  1.0  0.5620945306436649  0.37866835481919686  0.1682573363286346  Uiso  ?  O
Ce1  1.0  0.4934946235261253  0.3744403177757374  0.18651747365930757  Uiso  ?  Ce
O1  1.0  0.5247060120119679  0.39034971930881396  0.19046229413521934  Uiso  ?  O
O1  1.0  0.46805612965991067  0.40184034702047017  0.17823971182868484  Uiso  ?  O
O1  1.0  0.495262621918442  0.39904748875613727  0.2157597011274005  Uiso  ?  O
Ce1  1.0  0.43464015989731586  0.3853701963244828  0.17508428919207628  Uiso  ?  Ce
Ce1  1.0  0.42724077037585323  0.39631795070529063  0.23722721643237507  Uiso  ?  Ce
O1  1.0  0.43645086026820135  0.4123800045743718  0.20249249421382473  Uiso  ?  O
O1  1.0  0.4617707711651625  0.4062244908655346  0.2328558224782853  Uiso  ?  O
Ce1  1.0  0.36862098634098117  0.4096025259149151  0.22080098369386975  Uiso  ?  Ce
O1  1.0  0.2869264768954708  0.34289487979653355  0.4048173950933714  Uiso  ?  O
O1  1.0  0.30785741097416497  0.3369837460592201  0.4384101316093317  Uiso  ?  O
Ce1  1.0  0.21805117730903267  0.33740624632656274  0.42474518888244633  Uiso  ?  Ce
O1  1.0  0.2540474541707403  0.3512855824051458  0.43087870780442505  Uiso  ?  O
O1  1.0  0.2752186139311153  0.34850977812420914  0.46154409613038677  Uiso  ?  O
O1  1.0  0.21971652768713074  0.36093660173569003  0.4485187503573752  Uiso  ?  O
O1  1.0  0.24426746712275366  0.3600271836602997  0.4897902896473782  Uiso  ?  O
Ce1  1.0  0.2103220533327976  0.34773517463849646  0.481679896443524  Uiso  ?  Ce
O1  1.0  0.16675737973134433  0.34093595051979914  0.5357112039256196  Uiso  ?  O
O1  1.0  0.18602238145268976  0.37303815017349545  0.4765500210763427  Uiso  ?  O
O1  1.0  0.20892620722018665  0.3707608653305245  0.5111412859877477  Uiso  ?  O
O1  1.0  0.17470942251394067  0.38286645947640313  0.5332551025935367  Uiso  ?  O
O1  1.0  0.5744734541421069  0.33473929471263997  0.20804852593853482  Uiso  ?  O
O1  1.0  0.6020748922259183  0.33309189705448666  0.23978755601798796  Uiso  ?  O
O1  1.0  0.5436833715259463  0.34449103539425185  0.2302584177172483  Uiso  ?  O
O1  1.0  0.5669458721053596  0.34563835869409215  0.26553783416480387  Uiso  ?  O
O1  1.0  0.510239999183216  0.3576362224132709  0.25179319866762867  Uiso  ?  O
O1  1.0  0.5322913395466754  0.35702263212596136  0.288398025018541  Uiso  ?  O
Ce1  1.0  0.4406971817238855  0.3534611477375132  0.27477217901904744  Uiso  ?  Ce
Ce1  1.0  0.4994001028419389  0.3441486665905441  0.28760959516792983  Uiso  ?  Ce
O1  1.0  0.43153212012321135  0.3372346043701906  0.3043173478890184  Uiso  ?  O
O1  1.0  0.45469559051088765  0.3366469290654992  0.3394912965149483  Uiso  ?  O
O1  1.0  0.47318594458815927  0.367622045987733  0.2765457602258403  Uiso  ?  O
O1  1.0  0.498049844016264  0.36603055585852085  0.31180552210930895  Uiso  ?  O
O1  1.0  0.4400807955309293  0.37715226867042956  0.2983170473661193  Uiso  ?  O
O1  1.0  0.4632007602409889  0.3765773429370337  0.33703582477981214  Uiso  ?  O
Ce1  1.0  0.37206260301389554  0.3771116364624559  0.3214043969602684  Uiso  ?  Ce
Ce1  1.0  0.43092764297464914  0.3633468565340982  0.3328162308302831  Uiso  ?  Ce
O1  1.0  0.39870184923147856  0.3480767251090154  0.3275384688763496  Uiso  ?  O
O1  1.0  0.4232165315106904  0.34814084500698633  0.3622725140192509  Uiso  ?  O
O1  1.0  0.36484245333359  0.359103250203533  0.3522003358310033  Uiso  ?  O
O1  1.0  0.38731765751451225  0.3579190745159573  0.3863096625154238  Uiso  ?  O
O1  1.0  0.40532347893974097  0.39091069461643724  0.3225908366706876  Uiso  ?  O
O1  1.0  0.42937370337846736  0.38915185513234  0.3573854234629789  Uiso  ?  O
O1  1.0  0.37754933649221184  0.39994319136398004  0.34851567786539783  Uiso  ?  O
O1  1.0  0.39442754740497094  0.3991725863410281  0.3821839814054947  Uiso  ?  O
Ce1  1.0  0.33069487049633844  0.3437692145605315  0.34547711449132046  Uiso  ?  Ce
Ce1  1.0  0.30641850716922825  0.3941531841740205  0.3674822937252748  Uiso  ?  Ce
Ce1  1.0  0.3628555314684831  0.38413433758205573  0.37974422267987984  Uiso  ?  Ce
Ce1  1.0  0.31715588395313415  0.3553803975560996  0.405930290455133  Uiso  ?  Ce
O1  1.0  0.32925809226708674  0.3701905347364861  0.3748881534975001  Uiso  ?  O
O1  1.0  0.3531115345063866  0.3695846880508936  0.41204795504758424  Uiso  ?  O
O1  1.0  0.2976016442233541  0.38006309035378805  0.3979936611483505  Uiso  ?  O
O1  1.0  0.3197170412011372  0.3808377733327079  0.4320868466964168  Uiso  ?  O
O1  1.0  0.34184262515204683  0.414950434603131  0.37217186128871327  Uiso  ?  O
O1  1.0  0.3622697871560075  0.40643684223233273  0.405542921740324  Uiso  ?  O
Ce1  1.0  0.26276762790503433  0.3663826503882419  0.39618873487395767  Uiso  ?  Ce
Ce1  1.0  0.2960383163549676  0.4085896985070603  0.42524890117429875  Uiso  ?  Ce
Ce1  1.0  0.2553127320927201  0.3759457857783627  0.45470023807385773  Uiso  ?  Ce
O1  1.0  0.2612731165670071  0.39291938373511104  0.42356764397515884  Uiso  ?  O
O1  1.0  0.28594008563152773  0.38941742214406644  0.4592085759963846  Uiso  ?  O
O1  1.0  0.22923982615725771  0.4039717363014115  0.4464630996485963  Uiso  ?  O
O1  1.0  0.25256995242827646  0.39802075178871626  0.4806542720058834  Uiso  ?  O
Ce1  1.0  0.19662410458960447  0.3873856929236508  0.44270623360634914  Uiso  ?  Ce
Ce1  1.0  0.18631254212477183  0.39723750596707375  0.5027536443644737  Uiso  ?  Ce
O1  1.0  0.1952893704419016  0.41283954934647027  0.4663809969315108  Uiso  ?  O
O1  1.0  0.2171159370684158  0.41052500727063534  0.5050906494578463  Uiso  ?  O
O1  1.0  0.7078931262050101  0.3407895169032724  0.1651092535805783  Uiso  ?  O
O1  1.0  0.6772269493716211  0.3550642270303054  0.19152851344345734  Uiso  ?  O
Ce1  1.0  0.6207919713418345  0.3392104948472319  0.15130553452505774  Uiso  ?  Ce
Ce1  1.0  0.6079603352510485  0.35006474081867694  0.2097165050597324  Uiso  ?  Ce
O1  1.0  0.6213416243318132  0.36327373262564044  0.17836518392048215  Uiso  ?  O
O1  1.0  0.6437168959512763  0.3649943352501028  0.21208577035011486  Uiso  ?  O
O1  1.0  0.5864467620844579  0.37780620117855357  0.20155061979998296  Uiso  ?  O
O1  1.0  0.6078552326230446  0.37328689755526945  0.23901085325343155  Uiso  ?  O
Ce1  1.0  0.5549023867561853  0.36139986385858336  0.19845529534268302  Uiso  ?  Ce
Ce1  1.0  0.5440109775795687  0.3737891124010809  0.2549576786290957  Uiso  ?  Ce
O1  1.0  0.5515785474443597  0.38906669957624906  0.22377188841707848  Uiso  ?  O
O1  1.0  0.5784356569680904  0.3873948293323777  0.25974679724800054  Uiso  ?  O
O1  1.0  0.5193407077660755  0.4017585169661955  0.2463557805309086  Uiso  ?  O
O1  1.0  0.5452934427289261  0.39567565895693363  0.2834399923749311  Uiso  ?  O
Ce1  1.0  0.4863043067990649  0.38560332676104137  0.24611793200806756  Uiso  ?  Ce
Ce1  1.0  0.47607423775860813  0.3953934970290433  0.30086602390726264  Uiso  ?  Ce
O1  1.0  0.48433986962306097  0.41051050470724243  0.2733845335339178  Uiso  ?  O
O1  1.0  0.5083775123493596  0.406370248549001  0.3078365393459609  Uiso  ?  O
Ce1  1.0  0.4176136969538278  0.4058004720334574  0.2930491398587534  Uiso  ?  Ce
Ce1  1.0  0.4063408834600795  0.414789006565353  0.34930034907853724  Uiso  ?  Ce
O1  1.0  0.33408128069326504  0.33585468097841825  0.47381829875352816  Uiso  ?  O
O1  1.0  0.3580952710259094  0.33384751314485395  0.5111068010220045  Uiso  ?  O
Ce1  1.0  0.26456460640565926  0.33133737009160164  0.49353786857058335  Uiso  ?  Ce
O1  1.0  0.3002994210417779  0.34869828926481833  0.4982644660606322  Uiso  ?  O
O1  1.0  0.32297524454508303  0.3476244235686209  0.5319968428725419  Uiso  ?  O
O1  1.0  0.26890164073875283  0.35827030026241097  0.5197670975095325  Uiso  ?  O
O1  1.0  0.2898969655500681  0.3602549970742674  0.5541341383440005  Uiso  ?  O
Ce1  1.0  0.20192265213140595  0.3551236430789065  0.5409271753117113  Uiso  ?  Ce
Ce1  1.0  0.25748913316406963  0.34396853207367556  0.5549797301917752  Uiso  ?  Ce
O1  1.0  0.19145527789702613  0.33756698038413613  0.5721673209833462  Uiso  ?  O
O1  1.0  0.21497121836464791  0.33921556287235755  0.609524794481037  Uiso  ?  O
O1  1.0  0.23293477448453387  0.36969287154611485  0.5449838620040921  Uiso  ?  O
O1  1.0  0.25636909199020147  0.3684628586076303  0.5787482725935855  Uiso  ?  O
O1  1.0  0.197488055557213  0.3805940946002742  0.5673156760295023  Uiso  ?  O
O1  1.0  0.2223764927527181  0.3797233293591193  0.6051326510390566  Uiso  ?  O
Ce1  1.0  0.19145030181962552  0.365208763149452  0.6016177684121022  Uiso  ?  Ce
O1  1.0  0.15726575702117326  0.35374502299684235  0.5962071311228817  Uiso  ?  O
O1  1.0  0.1832288722672196  0.34887568913266465  0.6285711417086107  Uiso  ?  O
O1  1.0  0.16507586989240905  0.39074033706832695  0.5903331230237199  Uiso  ?  O
O1  1.0  0.1880197390920302  0.387661773910616  0.6262150697869431  Uiso  ?  O
O1  1.0  0.15778877452637025  0.4020409473793333  0.6489689218835523  Uiso  ?  O
O1  1.0  0.5877911944865091  0.3462789893400822  0.30096605647024177  Uiso  ?  O
O1  1.0  0.6141596478670853  0.34233975560842117  0.33760171510646886  Uiso  ?  O
O1  1.0  0.5566880326803575  0.35219391262528654  0.3246671281090231  Uiso  ?  O
O1  1.0  0.5794991929944469  0.35281279032821095  0.36080782470523975  Uiso  ?  O
Ce1  1.0  0.4892330454394557  0.3522300757420852  0.34193195233959844  Uiso  ?  Ce
Ce1  1.0  0.5456236475040925  0.3394608555931067  0.3572715062500337  Uiso  ?  Ce
O1  1.0  0.48186927013835196  0.3362346508435453  0.37522788031218307  Uiso  ?  O
O1  1.0  0.5030996552822092  0.3347649472163543  0.4092779010355884  Uiso  ?  O
O1  1.0  0.5212479919873744  0.3649060191108449  0.347588223907995  Uiso  ?  O
O1  1.0  0.545513933297436  0.36489736231551934  0.38216996251748675  Uiso  ?  O
O1  1.0  0.4872640714553415  0.37422838741941034  0.370649868609262  Uiso  ?  O
O1  1.0  0.513150290998591  0.37818535607580234  0.40650870477766166  Uiso  ?  O
Ce1  1.0  0.42011944473009627  0.37254264525946024  0.39109070393546286  Uiso  ?  Ce
Ce1  1.0  0.4800643560654701  0.3595065949516629  0.4022466361548368  Uiso  ?  Ce
O1  1.0  0.4446634803185353  0.346580749517623  0.3977935314722384  Uiso  ?  O
O1  1.0  0.46840771874010545  0.34334177617469414  0.43460361953062676  Uiso  ?  O
O1  1.0  0.41315270552922684  0.35611211916672186  0.42329166090855924  Uiso  ?  O
O1  1.0  0.43468195215031913  0.3576404849564815  0.45683643785745387  Uiso  ?  O
O1  1.0  0.4505043670953547  0.38882328109681685  0.39609424092232315  Uiso  ?  O
O1  1.0  0.4799255575117066  0.38564413259343594  0.4281978336537173  Uiso  ?  O
O1  1.0  0.4203520809814268  0.39635353053894706  0.41967534156799163  Uiso  ?  O
O1  1.0  0.44326740866553976  0.3968450534772568  0.4509199341586728  Uiso  ?  O
Ce1  1.0  0.3805157587047941  0.34186687467994725  0.41838571963662813  Uiso  ?  Ce
Ce1  1.0  0.3519957000909536  0.39159806380889073  0.43818785547632594  Uiso  ?  Ce
Ce1  1.0  0.4111109194565173  0.38246664323860485  0.44726491635177557  Uiso  ?  Ce
Ce1  1.0  0.3699870278212209  0.3500588926727749  0.48051846845607116  Uiso  ?  Ce
O1  1.0  0.37750143074362874  0.3667930266197287  0.44477751483180833  Uiso  ?  O
O1  1.0  0.4016885115611417  0.36818442483450176  0.4818610621250354  Uiso  ?  O
O1  1.0  0.3444775614175702  0.3791064570181477  0.4706208380445566  Uiso  ?  O
O1  1.0  0.3661962687539411  0.37590773604238475  0.5061621476881778  Uiso  ?  O
O1  1.0  0.3883466650144973  0.4084712915527958  0.43915885871072396  Uiso  ?  O
O1  1.0  0.4097108602185596  0.4066259921610431  0.4739202479177236  Uiso  ?  O
Ce1  1.0  0.30931077364923565  0.36390249742134256  0.4643637135660495  Uiso  ?  Ce
Ce1  1.0  0.2854588154066612  0.41268423065772286  0.4860866891261924  Uiso  ?  Ce
Ce1  1.0  0.34426757315461176  0.402976443836308  0.4937169586656514  Uiso  ?  Ce
Ce1  1.0  0.29580902357680816  0.3736072581109017  0.5240235710381365  Uiso  ?  Ce
O1  1.0  0.3122190811995011  0.39167035137676326  0.4920999003711915  Uiso  ?  O
O1  1.0  0.332107332519789  0.3893312854439205  0.5302028743919915  Uiso  ?  O
O1  1.0  0.27651103566030566  0.39875242699102226  0.513825564619611  Uiso  ?  O
O1  1.0  0.29884370830971335  0.39621236301847174  0.5495254866348736  Uiso  ?  O
Ce1  1.0  0.2421470260592863  0.3822940745877435  0.5113018369146974  Uiso  ?  Ce
Ce1  1.0  0.23176724230849322  0.39693724593927177  0.5691194981504138  Uiso  ?  Ce
O1  1.0  0.24467972654712378  0.4097408054778205  0.5377700074330254  Uiso  ?  O
O1  1.0  0.2694901151594635  0.4111325076083032  0.5743947766599075  Uiso  ?  O
Ce1  1.0  0.17700937769444675  0.4045182486624621  0.5573609713164678  Uiso  ?  Ce
O1  1.0  0.7353155554381295  0.34077855380629213  0.20409074078048395  Uiso  ?  O
O1  1.0  0.7577338421927012  0.33966505825556037  0.23624102383787024  Uiso  ?  O
O1  1.0  0.7002963379125475  0.3527678864056061  0.22311956723325468  Uiso  ?  O
O1  1.0  0.7265965320454094  0.3511914476150135  0.25994589204237045  Uiso  ?  O
Ce1  1.0  0.6668350961983995  0.3384966297508331  0.22077435065431417  Uiso  ?  Ce
Ce1  1.0  0.6450595352824121  0.38880853732029996  0.2430827937851452  Uiso  ?  Ce
Ce1  1.0  0.6989223963035938  0.37964547349066285  0.24773856209159886  Uiso  ?  Ce
Ce1  1.0  0.6570610803484641  0.3486867283234763  0.2821067074103592  Uiso  ?  Ce
O1  1.0  0.6653584412892157  0.3628849869244426  0.2495981146654373  Uiso  ?  O
O1  1.0  0.6867198173577718  0.36104694396537673  0.2857807887830964  Uiso  ?  O
O1  1.0  0.6326968003890888  0.37299888156928157  0.2733291557769971  Uiso  ?  O
O1  1.0  0.6587181543074754  0.3735508248272301  0.30989033672486144  Uiso  ?  O
Ce1  1.0  0.5995377432478745  0.3610737747552331  0.271053222481984  Uiso  ?  Ce
Ce1  1.0  0.5728590444301978  0.4130068944147795  0.28652374839465095  Uiso  ?  Ce
Ce1  1.0  0.632816413225777  0.4010947448476409  0.30107956631024446  Uiso  ?  Ce
Ce1  1.0  0.5918584460172668  0.3694488051346096  0.3267249459180317  Uiso  ?  Ce
O1  1.0  0.5969458718779059  0.38431493356145524  0.2955548028516467  Uiso  ?  O
O1  1.0  0.6212296159869172  0.38525149070172715  0.33009449749245945  Uiso  ?  O
O1  1.0  0.5660568923401603  0.3956904170719177  0.3202765971672098  Uiso  ?  O
O1  1.0  0.5870752023957402  0.3973442632346613  0.35667995694503707  Uiso  ?  O
Ce1  1.0  0.532701343544496  0.3811373376109218  0.31765844264062626  Uiso  ?  Ce
Ce1  1.0  0.5220874461449232  0.391779166196583  0.37469291492756085  Uiso  ?  Ce
O1  1.0  0.5345134326727086  0.40650969569177803  0.34188076234473785  Uiso  ?  O
O1  1.0  0.5551682357026186  0.40586450386495415  0.37386147869274894  Uiso  ?  O
O1  1.0  0.5217245222782028  0.4167345557012944  0.39904606767739137  Uiso  ?  O
Ce1  1.0  0.46492772445453107  0.40257534795466254  0.3615597448165513  Uiso  ?  Ce
Ce1  1.0  0.45169341471717345  0.41269188569852266  0.42119002829043845  Uiso  ?  Ce
O1  1.0  0.3827639554632688  0.3356126708513088  0.5424995390522346  Uiso  ?  O
O1  1.0  0.40531660487627263  0.33365783858009157  0.5791294686411183  Uiso  ?  O
O1  1.0  0.35009650477425486  0.348377984313188  0.5681692358483247  Uiso  ?  O
O1  1.0  0.37012346698724524  0.34390595963726767  0.6058540237008653  Uiso  ?  O
O1  1.0  0.3139679272570316  0.35650138731876785  0.5914876877918823  Uiso  ?  O
O1  1.0  0.3418953475946141  0.35560349810272895  0.625120721838222  Uiso  ?  O
Ce1  1.0  0.24735332275575753  0.35448379551104114  0.6132364464480998  Uiso  ?  Ce
Ce1  1.0  0.3024702074166093  0.34100327679457526  0.6208799428636209  Uiso  ?  Ce
O1  1.0  0.23817922111333753  0.336801115941387  0.6417468728620376  Uiso  ?  O
O1  1.0  0.26310843515739635  0.3362557766031809  0.6777288361290661  Uiso  ?  O
O1  1.0  0.28326571078555535  0.3689915595161383  0.6131013373236506  Uiso  ?  O
O1  1.0  0.30593790727110565  0.363244823706308  0.6505889660894885  Uiso  ?  O
O1  1.0  0.24881375305302328  0.3772305009194563  0.6390053817912036  Uiso  ?  O
O1  1.0  0.2689699307208275  0.3772442642575718  0.6726811619116434  Uiso  ?  O
Ce1  1.0  0.17875330412331394  0.3745334041650849  0.6589186050273793  Uiso  ?  Ce
Ce1  1.0  0.2375626332335099  0.36348552902741355  0.6693890676902504  Uiso  ?  Ce
O1  1.0  0.2027621058552724  0.3441267367349956  0.6661004188796784  Uiso  ?  O
O1  1.0  0.2280561154042811  0.3471965215934483  0.7016467555162134  Uiso  ?  O
O1  1.0  0.16787771453962924  0.357671797640612  0.6893916567032227  Uiso  ?  O
O1  1.0  0.19185837375982867  0.3603866400163683  0.720014345020089  Uiso  ?  O
O1  1.0  0.21350641438843804  0.3859494662347718  0.6606569659315673  Uiso  ?  O
O1  1.0  0.2365121824900923  0.38623975684361306  0.6945813975295623  Uiso  ?  O
O1  1.0  0.18143814419021423  0.40045969172690327  0.6827399697040866  Uiso  ?  O
O1  1.0  0.2017093041192417  0.39765561208461253  0.7216116322797365  Uiso  ?  O
Ce1  1.0  0.16885378151888594  0.3849462453406546  0.7158480294026212  Uiso  ?  Ce
O1  1.0  0.1592991073780916  0.36547450436254914  0.747110637337737  Uiso  ?  O
O1  1.0  0.16854368818269896  0.4090112189431672  0.7412316984164211  Uiso  ?  O
O1  1.0  0.638719474663226  0.341132178772466  0.3722453620727257  Uiso  ?  O
O1  1.0  0.6620803868839105  0.34012979266804844  0.40673633883726984  Uiso  ?  O
O1  1.0  0.603280975829302  0.3496040786849123  0.39381471473246843  Uiso  ?  O
O1  1.0  0.6258803816741522  0.3507580054496421  0.4299056307233639  Uiso  ?  O
Ce1  1.0  0.5370910046580362  0.34658628793771695  0.41315829405842036  Uiso  ?  Ce
Ce1  1.0  0.5934192974165138  0.3345786698530666  0.4268382304432607  Uiso  ?  Ce
O1  1.0  0.5716662160497857  0.3590382552227192  0.41503679781575253  Uiso  ?  O
O1  1.0  0.5929429216758995  0.3610235407941129  0.4554213657721021  Uiso  ?  O
O1  1.0  0.5357739436695566  0.3732715657130735  0.4396784555783082  Uiso  ?  O
O1  1.0  0.5595147900095968  0.3745696227975372  0.4745034206535826  Uiso  ?  O
Ce1  1.0  0.46800303343707067  0.3694466854067668  0.4637619801187176  Uiso  ?  Ce
Ce1  1.0  0.5261894098109232  0.35864388722622415  0.47635062309694587  Uiso  ?  Ce
O1  1.0  0.492955565869696  0.34378935201940697  0.46768658072242036  Uiso  ?  O
O1  1.0  0.5157693563393944  0.3453124719204599  0.5052694124630781  Uiso  ?  O
O1  1.0  0.4614755340039705  0.3537422721571956  0.4923235136788119  Uiso  ?  O
O1  1.0  0.4816813119611132  0.35560851297218515  0.5253497983145016  Uiso  ?  O
O1  1.0  0.5025916593672125  0.3836839987956962  0.465637966914369  Uiso  ?  O
O1  1.0  0.5276720321874574  0.38427602666819693  0.4986351697499082  Uiso  ?  O
O1  1.0  0.46987400902722787  0.3930093443662954  0.48612651055602907  Uiso  ?  O
O1  1.0  0.492717019280773  0.3958881546347205  0.5212036995890142  Uiso  ?  O
Ce1  1.0  0.4252938270123312  0.33862332655792204  0.4897316992542284  Uiso  ?  Ce
Ce1  1.0  0.40089801278706017  0.39285041687036437  0.506947668953991  Uiso  ?  Ce
Ce1  1.0  0.4576293020337944  0.3809428217196803  0.518422912795734  Uiso  ?  Ce
Ce1  1.0  0.41662352785690077  0.3501500074148688  0.5507697206492603  Uiso  ?  Ce
O1  1.0  0.428200655070541  0.3625677540236477  0.5130578037432898  Uiso  ?  O
O1  1.0  0.4492323644207844  0.3641016697915907  0.5505047836482353  Uiso  ?  O
O1  1.0  0.39252972665621655  0.3768634228723857  0.5379862884568777  Uiso  ?  O
O1  1.0  0.4133847700767255  0.3741191284025426  0.5725723041936347  Uiso  ?  O
O1  1.0  0.4337124284143036  0.4065819022135651  0.512549743501604  Uiso  ?  O
O1  1.0  0.459494641365849  0.4053104109052278  0.54820651505444  Uiso  ?  O
O1  1.0  0.4254998317075734  0.4155492777615256  0.5680989775063073  Uiso  ?  O
Ce1  1.0  0.35861277431001554  0.36425601970643123  0.5372856896841745  Uiso  ?  Ce
Ce1  1.0  0.33509604769219875  0.4132738348139943  0.5541176269014221  Uiso  ?  Ce
Ce1  1.0  0.3894889702994489  0.4020433017287658  0.5654928996194158  Uiso  ?  Ce
Ce1  1.0  0.3481857617752798  0.37408883860885034  0.5948738323936016  Uiso  ?  Ce
O1  1.0  0.3544501602898537  0.3867904062684072  0.561626006406622  Uiso  ?  O
O1  1.0  0.38475361080759957  0.3836919036106899  0.5988370785047381  Uiso  ?  O
O1  1.0  0.32318186319729564  0.3948342330069701  0.5855076449601555  Uiso  ?  O
O1  1.0  0.350045703348741  0.3936059789032904  0.6224117231366743  Uiso  ?  O
Ce1  1.0  0.29159561539369544  0.3837271263715866  0.5802784756470801  Uiso  ?  Ce
Ce1  1.0  0.2793585684426229  0.39416193805788113  0.6396573559671074  Uiso  ?  Ce
O1  1.0  0.2936364518756927  0.40792359592413  0.6110023379584204  Uiso  ?  O
O1  1.0  0.31481945826659163  0.40522473970226663  0.643818601359023  Uiso  ?  O
Ce1  1.0  0.22120456016039775  0.40689040776910407  0.6297894914232272  Uiso  ?  Ce
Ce1  1.0  0.2144437514398484  0.41367532387523076  0.6884006007212238  Uiso  ?  Ce
Ce1  1.0  0.7571198892111972  0.3650700314979124  0.26775632946445715  Uiso  ?  Ce
O1  1.0  0.7487500211305467  0.3512291161155675  0.29693600336653525  Uiso  ?  O
O1  1.0  0.7713457885912512  0.34766045837744813  0.3306939726745022  Uiso  ?  O
Ce1  1.0  0.7147431548566763  0.3362036218223282  0.29301599964647224  Uiso  ?  Ce
Ce1  1.0  0.6922774388600523  0.38659527696057827  0.3119438708833941  Uiso  ?  Ce
Ce1  1.0  0.747982732968673  0.3723866112738503  0.32298646810278514  Uiso  ?  Ce
Ce1  1.0  0.7027150409667912  0.34612905772100194  0.35091004193291175  Uiso  ?  Ce
O1  1.0  0.7164841814443075  0.35966219293626855  0.32044265948850015  Uiso  ?  O
O1  1.0  0.7387406982951352  0.3624971269397415  0.353885831989624  Uiso  ?  O
O1  1.0  0.6809143934700919  0.3693418921731978  0.3444308235144331  Uiso  ?  O
O1  1.0  0.7031995827332526  0.3714679727130921  0.3784512900258813  Uiso  ?  O
O1  1.0  0.7265190854682804  0.40416008052517916  0.31331639109272386  Uiso  ?  O
O1  1.0  0.7511720987627587  0.40310521463280885  0.3469295298958058  Uiso  ?  O
O1  1.0  0.6904417043272816  0.41135090691905546  0.3404475373252002  Uiso  ?  O
O1  1.0  0.7128645869754368  0.4104937417437955  0.3708614323407313  Uiso  ?  O
Ce1  1.0  0.647576773873735  0.3561053297779889  0.340529227400852  Uiso  ?  Ce
Ce1  1.0  0.6209699625041223  0.4106950755027645  0.3593867707855449  Uiso  ?  Ce
Ce1  1.0  0.6802213457500038  0.3990461102909505  0.36818697957482244  Uiso  ?  Ce
Ce1  1.0  0.6378842243846321  0.36632383275735175  0.3987390119939414  Uiso  ?  Ce
O1  1.0  0.6457358015485841  0.3825058229411773  0.36725680305705816  Uiso  ?  O
O1  1.0  0.6721376317407366  0.37992706121799025  0.4006425288697458  Uiso  ?  O
O1  1.0  0.614506956293876  0.3907119310551323  0.39247517298591506  Uiso  ?  O
O1  1.0  0.635920128559715  0.39544437036120134  0.4244532378116764  Uiso  ?  O
Ce1  1.0  0.5781331084344558  0.3772416980722563  0.38415491215756903  Uiso  ?  Ce
Ce1  1.0  0.5730653104669832  0.3885693402639411  0.4420884425524195  Uiso  ?  Ce
O1  1.0  0.5815733328625751  0.4047390369314148  0.41244805819116864  Uiso  ?  O
O1  1.0  0.6042417499113591  0.4020706037823855  0.44796559671003255  Uiso  ?  O
O1  1.0  0.5458635077106383  0.4148269625336877  0.4344784869214583  Uiso  ?  O
O1  1.0  0.5720623518140504  0.4165066592740738  0.4703684001508005  Uiso  ?  O
Ce1  1.0  0.5151245659912338  0.4005674554962679  0.43361747123766536  Uiso  ?  Ce
Ce1  1.0  0.5016385740316824  0.40645575132654327  0.49274397098849726  Uiso  ?  Ce
O1  1.0  0.1634714456949589  0.33623900802740403  0.8450717917709023  Uiso  ?  O
O1  1.0  0.3953949217565999  0.3399842355378961  0.6374799864994748  Uiso  ?  O
O1  1.0  0.41724111484022103  0.34284655377407736  0.673618695215798  Uiso  ?  O
O1  1.0  0.3615622609285339  0.35203757474162206  0.6611218786063934  Uiso  ?  O
O1  1.0  0.3876106804756246  0.35189009617724715  0.6959496120752638  Uiso  ?  O
Ce1  1.0  0.29407414730087444  0.35071730041795973  0.6814891857214287  Uiso  ?  Ce
Ce1  1.0  0.35295892371405035  0.3374225596547211  0.6937416840581867  Uiso  ?  Ce
O1  1.0  0.283704301837761  0.33601703230409286  0.714473447197608  Uiso  ?  O
O1  1.0  0.30792654217207094  0.3350049513307029  0.7493695275667915  Uiso  ?  O
O1  1.0  0.32821467357860945  0.3642320275269715  0.6838870378628318  Uiso  ?  O
O1  1.0  0.35004670584056424  0.365457330787563  0.7187147806384968  Uiso  ?  O
O1  1.0  0.2947292583831141  0.3743091233453783  0.7077127941473614  Uiso  ?  O
O1  1.0  0.31569459924547916  0.37556114437271987  0.7425455889417848  Uiso  ?  O
Ce1  1.0  0.22914630285683674  0.37108238245200936  0.7280267062221939  Uiso  ?  Ce
Ce1  1.0  0.28384999507415315  0.3602665699595427  0.7404962509606611  Uiso  ?  Ce
O1  1.0  0.25247169664107777  0.3463614695424341  0.7339934250252089  Uiso  ?  O
O1  1.0  0.2767857657416198  0.3428723283284287  0.7716395933043193  Uiso  ?  O
O1  1.0  0.21924510095498784  0.3560612669481632  0.7590840871275399  Uiso  ?  O
O1  1.0  0.2405109581475799  0.3581694987930736  0.7979412956219872  Uiso  ?  O
O1  1.0  0.2604285362828641  0.3872910759291049  0.7339968110787809  Uiso  ?  O
O1  1.0  0.2846850204597982  0.38490217404179505  0.766876169301725  Uiso  ?  O
O1  1.0  0.22972244625535534  0.39721256692606366  0.7525266665621222  Uiso  ?  O
O1  1.0  0.24942545240013658  0.39460837324609116  0.7900509322033916  Uiso  ?  O
Ce1  1.0  0.18336459420032647  0.34076251731991625  0.7563007149288935  Uiso  ?  Ce
Ce1  1.0  0.1578501070308836  0.39305740888820023  0.774671523426867  Uiso  ?  Ce
Ce1  1.0  0.21636044727950532  0.3828550361237523  0.790115058913154  Uiso  ?  Ce
Ce1  1.0  0.17523702087293846  0.3500233100360064  0.8145246379113973  Uiso  ?  Ce
O1  1.0  0.18289363780037288  0.36937345581577863  0.7836455283360516  Uiso  ?  O
O1  1.0  0.2075181210069288  0.36461482103391507  0.8170708858525603  Uiso  ?  O
O1  1.0  0.17510271961230645  0.3777425557683919  0.8386123302139991  Uiso  ?  O
O1  1.0  0.19521450088773243  0.4029032873027419  0.7798938502264551  Uiso  ?  O
O1  1.0  0.21788507487780143  0.40765215913156483  0.810986113662188  Uiso  ?  O
O1  1.0  0.6862110332634047  0.3397050703734814  0.4412508027586098  Uiso  ?  O
O1  1.0  0.7077457932383836  0.33887534124057306  0.4751222022491567  Uiso  ?  O
O1  1.0  0.6530761287322979  0.34981558966927195  0.46681191680816847  Uiso  ?  O
O1  1.0  0.677635863098153  0.35032997320115955  0.4994457505441905  Uiso  ?  O
Ce1  1.0  0.583325843856516  0.3424528169105037  0.48476318869358376  Uiso  ?  Ce
Ce1  1.0  0.6401563048239178  0.3364680744596144  0.4939057661798494  Uiso  ?  Ce
O1  1.0  0.6189097781818499  0.3592503265666613  0.48856755154008424  Uiso  ?  O
O1  1.0  0.644172263608886  0.3593120787299207  0.5227922405279916  Uiso  ?  O
O1  1.0  0.5843223380191799  0.37043464669118786  0.5098635689381438  Uiso  ?  O
O1  1.0  0.6120942595628308  0.37156272001602464  0.5465555801173966  Uiso  ?  O
Ce1  1.0  0.5174734847652386  0.36700460044393957  0.5306888026615818  Uiso  ?  Ce
Ce1  1.0  0.575943057996708  0.35761062087844975  0.5445395457608655  Uiso  ?  Ce
O1  1.0  0.5402374148203923  0.33973556671664  0.5390352563196373  Uiso  ?  O
O1  1.0  0.5640856442124971  0.34170458352749833  0.5786699904500965  Uiso  ?  O
O1  1.0  0.5076670489146601  0.35341313068794233  0.5640524817932034  Uiso  ?  O
O1  1.0  0.5304612888591321  0.349009984047896  0.5973880661938813  Uiso  ?  O
O1  1.0  0.5470657121973165  0.38174525985853314  0.5330345587624946  Uiso  ?  O
O1  1.0  0.5758485912199885  0.3825169358222587  0.5674830402074303  Uiso  ?  O
O1  1.0  0.516699711581065  0.39358690033530774  0.5582295698969073  Uiso  ?  O
O1  1.0  0.539843932704105  0.39032382018492484  0.5935325870740784  Uiso  ?  O
Ce1  1.0  0.47271217690648637  0.3388166272405639  0.5593009296409671  Uiso  ?  Ce
Ce1  1.0  0.44852936817915756  0.38961487961163804  0.5765347809088701  Uiso  ?  Ce
Ce1  1.0  0.5093936147941789  0.379274718938795  0.5862900234934364  Uiso  ?  Ce
Ce1  1.0  0.4628906774328819  0.3455024610993391  0.6170196284099212  Uiso  ?  Ce
O1  1.0  0.47347355464521973  0.3622631662727897  0.5836654078974377  Uiso  ?  O
O1  1.0  0.4948993673642717  0.36295038883276015  0.6192949238759986  Uiso  ?  O
O1  1.0  0.4399908571320948  0.3726622706660029  0.6105417675975112  Uiso  ?  O
O1  1.0  0.46410735547257154  0.37368334343788406  0.642469603950597  Uiso  ?  O
O1  1.0  0.4829753603729281  0.4049991977164011  0.580795506033942  Uiso  ?  O
O1  1.0  0.5056406093449664  0.40368439895735475  0.616011964614221  Uiso  ?  O
O1  1.0  0.4465761086351188  0.41522397849705434  0.6020655040749536  Uiso  ?  O
O1  1.0  0.47234230893879725  0.4135332990674737  0.6411009333048444  Uiso  ?  O
Ce1  1.0  0.40664314338156354  0.35923903418519454  0.6023875671798403  Uiso  ?  Ce
Ce1  1.0  0.3850901544149047  0.4104128802166388  0.6270756178027972  Uiso  ?  Ce
Ce1  1.0  0.4415088975089124  0.3996888196766996  0.6383397648665076  Uiso  ?  Ce
Ce1  1.0  0.3954239557526445  0.3677947774533202  0.6642674562961369  Uiso  ?  Ce
O1  1.0  0.4063475647342637  0.38354172211575355  0.6326072475452922  Uiso  ?  O
O1  1.0  0.4283764645435162  0.3846589024185138  0.6686017005452274  Uiso  ?  O
O1  1.0  0.3725295787194313  0.3951723999564824  0.6542246349803226  Uiso  ?  O
O1  1.0  0.3952804916471541  0.3918487361817654  0.6883370187579969  Uiso  ?  O
Ce1  1.0  0.336940357502045  0.3780104375668144  0.653993670873059  Uiso  ?  Ce
Ce1  1.0  0.3289433662917886  0.38828830090353444  0.7093767116359365  Uiso  ?  Ce
O1  1.0  0.33797638484310183  0.4079278329940489  0.6785739991107581  Uiso  ?  O
O1  1.0  0.36198657629485337  0.40136354125052126  0.7147037801652385  Uiso  ?  O
O1  1.0  0.3262773954343405  0.41380762857885256  0.7408215938338025  Uiso  ?  O
Ce1  1.0  0.2712186542631956  0.4021714243414542  0.7001829825743113  Uiso  ?  Ce
Ce1  1.0  0.25949344825190207  0.41204551319324784  0.756476071388333  Uiso  ?  Ce
Ce1  1.0  0.7419246833628702  0.38597521570406035  0.38236136850939356  Uiso  ?  Ce
Ce1  1.0  0.7530151509410528  0.3431834366836096  0.42076401187700924  Uiso  ?  Ce
O1  1.0  0.7631679523904561  0.3578831697968264  0.3883739872009763  Uiso  ?  O
O1  1.0  0.7257293718580268  0.3682515756983162  0.4112967897175984  Uiso  ?  O
O1  1.0  0.7527360360467172  0.3678405127333806  0.4485477213539505  Uiso  ?  O
O1  1.0  0.773151392381653  0.40203642753474694  0.381604973922919  Uiso  ?  O
O1  1.0  0.7393853050935424  0.4097313542198379  0.40903135306561667  Uiso  ?  O
O1  1.0  0.7637229433166351  0.41059237390502457  0.4417112762667769  Uiso  ?  O
Ce1  1.0  0.6975135179464965  0.35473765475372393  0.4069997960533906  Uiso  ?  Ce
Ce1  1.0  0.6703692611258549  0.40700455507894956  0.427314144749706  Uiso  ?  Ce
Ce1  1.0  0.7280863572924677  0.39733907206339186  0.4393349734191554  Uiso  ?  Ce
Ce1  1.0  0.6824626438905738  0.3648205850624071  0.46847249776967637  Uiso  ?  Ce
O1  1.0  0.6931784784336492  0.3801996529293969  0.4354258295805962  Uiso  ?  O
O1  1.0  0.7195876592088133  0.38115480541999963  0.46878216858786265  Uiso  ?  O
O1  1.0  0.6618943492559941  0.39018184233115283  0.4588210191597432  Uiso  ?  O
O1  1.0  0.6856427799448694  0.389002719250773  0.4938634083524195  Uiso  ?  O
Ce1  1.0  0.6272150187429036  0.3770847666483411  0.4564678779375958  Uiso  ?  Ce
Ce1  1.0  0.6610850918109075  0.41743428434605795  0.4862253330697356  Uiso  ?  Ce
Ce1  1.0  0.615684412960941  0.3849902740466105  0.5165016520473591  Uiso  ?  Ce
O1  1.0  0.6297932479180501  0.40107023201370356  0.4824775813427406  Uiso  ?  O
O1  1.0  0.6506375376466984  0.40024223797382835  0.5185131243446192  Uiso  ?  O
O1  1.0  0.5956735693992108  0.41592155967582245  0.5059316013790839  Uiso  ?  O
O1  1.0  0.6170267404012265  0.4142042870653751  0.5397714778958809  Uiso  ?  O
Ce1  1.0  0.5628888545029687  0.3986966594777896  0.5033677564105237  Uiso  ?  Ce
Ce1  1.0  0.549505908759992  0.40806324699985835  0.5617543108810876  Uiso  ?  Ce
O1  1.0  0.18637532029208426  0.33645272834403483  0.8804890335540633  Uiso  ?  O
O1  1.0  0.44494354036032707  0.34125505677916196  0.7084365968684817  Uiso  ?  O
O1  1.0  0.46882131354864176  0.3412132119144585  0.7412226975611025  Uiso  ?  O
O1  1.0  0.41076747269208785  0.3519329332392786  0.7328476157689904  Uiso  ?  O
O1  1.0  0.4334550720297456  0.3515235399773469  0.7690607065294093  Uiso  ?  O
Ce1  1.0  0.34076391972988834  0.3467562987420852  0.7535968167236323  Uiso  ?  Ce
Ce1  1.0  0.4004435558466306  0.33776480819018095  0.7622890523104224  Uiso  ?  Ce
O1  1.0  0.3784191395634598  0.3597531784659893  0.7546236034847995  Uiso  ?  O
O1  1.0  0.40177200354140297  0.3598027734527387  0.7905622867776606  Uiso  ?  O
O1  1.0  0.34230506407874217  0.37358884951675153  0.7761536286496854  Uiso  ?  O
O1  1.0  0.3681626107402317  0.37483937215835156  0.8126113492497063  Uiso  ?  O
Ce1  1.0  0.2765510910729388  0.36746360589151533  0.7986505351904758  Uiso  ?  Ce
Ce1  1.0  0.3345586802596857  0.3577903434755099  0.8094385703117852  Uiso  ?  Ce
O1  1.0  0.29878098130090047  0.3418833656491632  0.8070838089061314  Uiso  ?  O
O1  1.0  0.3234820494681091  0.3424379195548333  0.8406530861588541  Uiso  ?  O
O1  1.0  0.26720093354538593  0.354659795118723  0.8295631234271534  Uiso  ?  O
O1  1.0  0.2884785176830779  0.3536093532575766  0.8653098905589321  Uiso  ?  O
O1  1.0  0.3105091424598678  0.3828289694978525  0.8020407428102415  Uiso  ?  O
O1  1.0  0.3306448701016316  0.38464782324471153  0.8377827070396708  Uiso  ?  O
O1  1.0  0.27773547880544197  0.39723401244538786  0.8243531161021334  Uiso  ?  O
O1  1.0  0.29690229603131474  0.39349545339324965  0.8581759853608671  Uiso  ?  O
Ce1  1.0  0.23134016513961475  0.33568097849509604  0.8283968172358129  Uiso  ?  Ce
Ce1  1.0  0.2090980870310747  0.39279308208116903  0.8433352557452036  Uiso  ?  Ce
Ce1  1.0  0.26727061369440386  0.380605918461411  0.8573441290528481  Uiso  ?  Ce
Ce1  1.0  0.22282188631201344  0.34831375218675026  0.8848407773798126  Uiso  ?  Ce
O1  1.0  0.2318760930429402  0.3624686101073007  0.8551121378093517  Uiso  ?  O
O1  1.0  0.2549383980149276  0.3664098414570391  0.8888517197596714  Uiso  ?  O
O1  1.0  0.19905759581368515  0.3764772458363425  0.8788953532919894  Uiso  ?  O
O1  1.0  0.23994600807267188  0.40920842260007384  0.8480172504494395  Uiso  ?  O
O1  1.0  0.26470860878629865  0.4038174548071212  0.8826126173946315  Uiso  ?  O
O1  1.0  0.20794645443344997  0.41594978632189955  0.8701022621499606  Uiso  ?  O
Ce1  1.0  0.16494063733323078  0.36151338004038763  0.869627008125516  Uiso  ?  Ce
O1  1.0  0.7342978071620222  0.3362327546836718  0.5125865481811213  Uiso  ?  O
O1  1.0  0.75593331895669  0.33704596905977957  0.547226134159639  Uiso  ?  O
O1  1.0  0.6972469620106012  0.34797325849725097  0.5377033594851935  Uiso  ?  O
O1  1.0  0.7221419416512764  0.3438459944620603  0.5680334366737896  Uiso  ?  O
Ce1  1.0  0.6323950604156245  0.3468755694022837  0.554229333158371  Uiso  ?  Ce
O1  1.0  0.6701499887298634  0.3586447134720774  0.5600895362466264  Uiso  ?  O
O1  1.0  0.6892102183210795  0.3582481029490328  0.5958496103571786  Uiso  ?  O
O1  1.0  0.6336379217590734  0.36913763525635934  0.5791920777284337  Uiso  ?  O
O1  1.0  0.6568414475963065  0.3664215786091978  0.6171369406413671  Uiso  ?  O
Ce1  1.0  0.562460320396705  0.3618365283103723  0.6001955003112113  Uiso  ?  Ce
Ce1  1.0  0.6222235076265134  0.3549746356685562  0.6138981313427333  Uiso  ?  Ce
O1  1.0  0.586030466123064  0.3381451188240304  0.6077566892655568  Uiso  ?  O
O1  1.0  0.6119648225787316  0.3406148356330014  0.6459315850208865  Uiso  ?  O
O1  1.0  0.5535956785314405  0.3484971419355471  0.6332978972321954  Uiso  ?  O
O1  1.0  0.5771785530846367  0.3440509770307776  0.66795417757479  Uiso  ?  O
O1  1.0  0.5976404503976522  0.3809629637597073  0.604851255787977  Uiso  ?  O
O1  1.0  0.6219456517935666  0.3809549284670943  0.6400318398862969  Uiso  ?  O
O1  1.0  0.5637332020264333  0.3919275346208354  0.6285447955901262  Uiso  ?  O
O1  1.0  0.585844129454243  0.3911837861958504  0.6645681366424011  Uiso  ?  O
Ce1  1.0  0.5201961100510577  0.33637226240889845  0.6292730405715308  Uiso  ?  Ce
Ce1  1.0  0.49833872735348494  0.38623697801666257  0.6453332595797625  Uiso  ?  Ce
Ce1  1.0  0.5542098995869773  0.3737747744236631  0.6591030693562658  Uiso  ?  Ce
Ce1  1.0  0.5120489653458441  0.3454960201605272  0.6875349265635116  Uiso  ?  Ce
O1  1.0  0.521406588663978  0.3609000883550068  0.6548620131498112  Uiso  ?  O
O1  1.0  0.5443362231401399  0.3572723334287208  0.6903614867926154  Uiso  ?  O
O1  1.0  0.48559351585859395  0.37181423291068655  0.6803385751357994  Uiso  ?  O
O1  1.0  0.5088429496672859  0.36889393379921137  0.7146613232359077  Uiso  ?  O
O1  1.0  0.5295441533800864  0.3986025818891585  0.6511382015911787  Uiso  ?  O
O1  1.0  0.5546694820727683  0.4022551591922737  0.6871549773661078  Uiso  ?  O
O1  1.0  0.4981578575597723  0.41460742389404664  0.6726061389564587  Uiso  ?  O
O1  1.0  0.5201071079367013  0.4119188696353414  0.7100955196342873  Uiso  ?  O
Ce1  1.0  0.4557438869478303  0.35957592384772086  0.67684938804878  Uiso  ?  Ce
Ce1  1.0  0.4307349756912927  0.408378029047425  0.6912982036243172  Uiso  ?  Ce
Ce1  1.0  0.4856052883357787  0.39749878856231025  0.7057440379509877  Uiso  ?  Ce
Ce1  1.0  0.4482867796669924  0.36628401784263764  0.7328703514355527  Uiso  ?  Ce
O1  1.0  0.45345438773080443  0.38225941399144747  0.7020510217036631  Uiso  ?  O
O1  1.0  0.4790764517659818  0.3822784895438755  0.7387352420020874  Uiso  ?  O
O1  1.0  0.4193199394172956  0.3931087008929954  0.7264404936937322  Uiso  ?  O
O1  1.0  0.4440124980444972  0.3915395877024164  0.7629958962013895  Uiso  ?  O
Ce1  1.0  0.3849076663006113  0.3748517639344846  0.7193652527263404  Uiso  ?  Ce
Ce1  1.0  0.3765836071245489  0.3894326806466343  0.7804822062951728  Uiso  ?  Ce
O1  1.0  0.39014901598799184  0.4051041754099534  0.7469974506193015  Uiso  ?  O
O1  1.0  0.4074332911054434  0.3990590386041293  0.7848552107767863  Uiso  ?  O
O1  1.0  0.3538800146883958  0.4191802946362892  0.771791906821422  Uiso  ?  O
O1  1.0  0.3784234967126663  0.41353214874793276  0.8050529933557012  Uiso  ?  O
Ce1  1.0  0.31862587845684914  0.3972040810772666  0.768723592391074  Uiso  ?  Ce
Ce1  1.0  0.309004239201205  0.4088336070162347  0.8254805241909262  Uiso  ?  Ce
O1  1.0  0.777484481616445  0.36604692948074524  0.48070402172317633  Uiso  ?  O
Ce1  1.0  0.7418881215343966  0.3505246170612308  0.47740662835315506  Uiso  ?  Ce
Ce1  1.0  0.7213794480605471  0.40475602268646066  0.4972529441714844  Uiso  ?  Ce
Ce1  1.0  0.7746108052957267  0.39379367377873753  0.5101030632385692  Uiso  ?  Ce
Ce1  1.0  0.7321161655136252  0.3594029323953938  0.5384313250621687  Uiso  ?  Ce
O1  1.0  0.7448731451253163  0.3798636162312879  0.5048321672705823  Uiso  ?  O
O1  1.0  0.7654143846008493  0.3754161879366666  0.5404204884296088  Uiso  ?  O
O1  1.0  0.7096355511317125  0.38641608334810673  0.5282452755429614  Uiso  ?  O
O1  1.0  0.7303890452683796  0.3852270719161545  0.5653731417672573  Uiso  ?  O
Ce1  1.0  0.6733910368048398  0.3764990137131549  0.5280507418251976  Uiso  ?  Ce
Ce1  1.0  0.7076185263293654  0.4137662741077093  0.5555329293796863  Uiso  ?  Ce
Ce1  1.0  0.668426128371089  0.38204393141672033  0.5844449209093945  Uiso  ?  Ce
O1  1.0  0.6758758799132998  0.3982015056559423  0.5527358420717277  Uiso  ?  O
O1  1.0  0.7002592081277247  0.39591526650937464  0.5873712275124164  Uiso  ?  O
O1  1.0  0.6429534289708239  0.4096812051700842  0.5757124978664502  Uiso  ?  O
O1  1.0  0.6647290529610091  0.41378329012098336  0.6118569798507283  Uiso  ?  O
Ce1  1.0  0.6086375584404127  0.39660540191660826  0.5730795596199354  Uiso  ?  Ce
Ce1  1.0  0.5978568741464569  0.40307269437689675  0.6302318385879848  Uiso  ?  Ce
O1  1.0  0.49144497332329556  0.3390467124274062  0.777435885805175  Uiso  ?  O
O1  1.0  0.5136415488987363  0.33976192078828904  0.8164177477770922  Uiso  ?  O
O1  1.0  0.4586805008307076  0.34992306627329334  0.8004238401319577  Uiso  ?  O
O1  1.0  0.47919947934762624  0.34875760927453014  0.8350486921654449  Uiso  ?  O
Ce1  1.0  0.3904939006769882  0.34666334393148174  0.8219683666434398  Uiso  ?  Ce
Ce1  1.0  0.44963982057570984  0.3350956052999667  0.8315787358160472  Uiso  ?  Ce
O1  1.0  0.42236166793373275  0.3621237222231717  0.8256156585707226  Uiso  ?  O
O1  1.0  0.4459811861680957  0.3588621154688111  0.860790355270978  Uiso  ?  O
O1  1.0  0.3901278499316583  0.373788516108255  0.8500061410129063  Uiso  ?  O
O1  1.0  0.4132918925237892  0.36752345855002566  0.8850297752756429  Uiso  ?  O
Ce1  1.0  0.3232404541424883  0.37050405730534136  0.8664989760920003  Uiso  ?  Ce
Ce1  1.0  0.3796536977853424  0.35547249874972237  0.879516989732537  Uiso  ?  Ce
O1  1.0  0.34275597417399545  0.34080734987675415  0.8766698259268599  Uiso  ?  O
O1  1.0  0.3544278200200823  0.3792258450969026  0.8723296186403445  Uiso  ?  O
O1  1.0  0.7478994022518654  0.34604408185398244  0.6050687565468161  Uiso  ?  O
O1  1.0  0.7699910329896079  0.3450129351978391  0.6390411434339777  Uiso  ?  O
Ce1  1.0  0.6778610604089725  0.3410777494463179  0.6234201079190005  Uiso  ?  Ce
O1  1.0  0.7129808847527184  0.35481769509877803  0.6268097190008393  Uiso  ?  O
O1  1.0  0.735519425953133  0.35420978041150075  0.6634964575671866  Uiso  ?  O
O1  1.0  0.6804483099767483  0.3658577722529677  0.6511348986959988  Uiso  ?  O
O1  1.0  0.702534550177262  0.3655453176579854  0.687869037571989  Uiso  ?  O
Ce1  1.0  0.6131369974042564  0.3620118380596382  0.6722051792512397  Uiso  ?  Ce
Ce1  1.0  0.6708407769144453  0.34866785221708424  0.6847724170070606  Uiso  ?  Ce
O1  1.0  0.6356283636617556  0.33491096868344317  0.679966911476866  Uiso  ?  O
O1  1.0  0.6599659958009919  0.33660691712275426  0.7140050284690308  Uiso  ?  O
O1  1.0  0.602625770937988  0.3457910208667879  0.7066125576228413  Uiso  ?  O
O1  1.0  0.625366304140767  0.34509875435495985  0.7382214193296459  Uiso  ?  O
O1  1.0  0.6471576225825778  0.378170828283744  0.6763634855808823  Uiso  ?  O
O1  1.0  0.6683840724219122  0.37711642775506515  0.7107356261543958  Uiso  ?  O
O1  1.0  0.6120042003756245  0.3883547421774017  0.6976203021835079  Uiso  ?  O
O1  1.0  0.6372544319353514  0.3880135872526005  0.7345004653620499  Uiso  ?  O
Ce1  1.0  0.5465246163719204  0.3845750164471556  0.718091500158017  Uiso  ?  Ce
Ce1  1.0  0.6020756781251196  0.3717806470262798  0.7286099350495469  Uiso  ?  Ce
Ce1  1.0  0.5585276361318782  0.3420458893177517  0.7569728814627773  Uiso  ?  Ce
O1  1.0  0.5707188890775826  0.3598258216728454  0.7251782834226125  Uiso  ?  O
O1  1.0  0.5920385386530547  0.3583835391073482  0.7579695342651906  Uiso  ?  O
O1  1.0  0.5348994973884534  0.3681419047972366  0.7494793826839784  Uiso  ?  O
O1  1.0  0.5563219916674984  0.3675288773847775  0.780843482986803  Uiso  ?  O
O1  1.0  0.5781820928226581  0.4000148325955562  0.7255182375380531  Uiso  ?  O
O1  1.0  0.6026583679829967  0.3956335046749902  0.7542599137670359  Uiso  ?  O
O1  1.0  0.5436190474703672  0.4119615774943436  0.7439101556848094  Uiso  ?  O
O1  1.0  0.5672842331707145  0.40781089953581406  0.7806714401184458  Uiso  ?  O
Ce1  1.0  0.5036922066839117  0.3568416943941106  0.7468263445763664  Uiso  ?  Ce
Ce1  1.0  0.4767235437816272  0.40482774448074504  0.7651820098037396  Uiso  ?  Ce
Ce1  1.0  0.537242312106888  0.3950907374738859  0.7787872401955428  Uiso  ?  Ce
Ce1  1.0  0.4913477771390644  0.3642955903805452  0.8030574796088538  Uiso  ?  Ce
O1  1.0  0.5030385823760158  0.3810391580701976  0.7740798151539822  Uiso  ?  O
O1  1.0  0.5247583201996859  0.37611823104260567  0.8070755859855403  Uiso  ?  O
O1  1.0  0.46708115392546157  0.3902362465316702  0.7933594126104176  Uiso  ?  O
O1  1.0  0.49003747839155665  0.39090138537243435  0.8305235763291061  Uiso  ?  O
Ce1  1.0  0.43294250533718986  0.37635025797011473  0.7922719467690388  Uiso  ?  Ce
Ce1  1.0  0.46933890863895644  0.41753819286559035  0.8208208944458327  Uiso  ?  Ce
Ce1  1.0  0.42419751431862857  0.38564227270839463  0.8522233667795891  Uiso  ?  Ce
O1  1.0  0.4349019118431392  0.3989669569069618  0.8212615092399299  Uiso  ?  O
O1  1.0  0.45819873127165694  0.4019803462408854  0.8538221601866299  Uiso  ?  O
O1  1.0  0.40022835444117766  0.4138578017540288  0.8452258677773188  Uiso  ?  O
O1  1.0  0.4248299680080287  0.41255711793950756  0.8796836432518448  Uiso  ?  O
Ce1  1.0  0.36705989766989994  0.39654904207648317  0.8396439834675673  Uiso  ?  Ce
Ce1  1.0  0.7652217411790154  0.4040560636991769  0.5659618914734647  Uiso  ?  Ce
O1  1.0  0.7578754208274214  0.38499440475340846  0.6002684343114731  Uiso  ?  O
Ce1  1.0  0.7238400272348608  0.3686275949153537  0.5947206239399967  Uiso  ?  Ce
Ce1  1.0  0.7554643047787712  0.41225263885019575  0.6266715535408014  Uiso  ?  Ce
Ce1  1.0  0.71254563534906  0.38228800968356924  0.6537254359002278  Uiso  ?  Ce
O1  1.0  0.7214346263903999  0.3961598949333872  0.6215266548189332  Uiso  ?  O
O1  1.0  0.7493749258045853  0.3949559275944867  0.6573961953039738  Uiso  ?  O
O1  1.0  0.689039699588439  0.4090917586867926  0.6467431771771807  Uiso  ?  O
O1  1.0  0.7129327078592806  0.40928666099449884  0.6784188436320369  Uiso  ?  O
Ce1  1.0  0.6545648392787375  0.39263115317647485  0.6403011813788696  Uiso  ?  Ce
Ce1  1.0  0.6475391832520028  0.40418678059962737  0.7017651562863659  Uiso  ?  Ce
Ce1  1.0  0.5862115807294508  0.41530635296251417  0.6896716254852086  Uiso  ?  Ce
O1  1.0  0.53869564468144  0.3392740345074524  0.8455950280894985  Uiso  ?  O
O1  1.0  0.5057260653046173  0.34562183933270346  0.8718943524011303  Uiso  ?  O
Ce1  1.0  0.4344049142738498  0.34235049037806725  0.8923888914693994  Uiso  ?  Ce
Ce1  1.0  0.7250797504487397  0.3396302923511306  0.69673103352192  Uiso  ?  Ce
Ce1  1.0  0.6595333741100914  0.35900629900938896  0.7416289868818552  Uiso  ?  Ce
O1  1.0  0.6819623631798566  0.33406915884505667  0.7513342940966602  Uiso  ?  O
O1  1.0  0.6490936053805451  0.3416977345171954  0.7704816252747458  Uiso  ?  O
Ce1  1.0  0.5947871048414888  0.3844714326833477  0.7866792015203091  Uiso  ?  Ce
O1  1.0  0.6164856861984244  0.3565015874542428  0.7970409024207261  Uiso  ?  O
O1  1.0  0.5804252451127877  0.36716359205505944  0.8198956974518736  Uiso  ?  O
Ce1  1.0  0.5492301515455469  0.3531943846838814  0.8158251023462212  Uiso  ?  Ce
Ce1  1.0  0.5261033074586796  0.4045352341278586  0.8352489456203185  Uiso  ?  Ce
Ce1  1.0  0.5395809173034009  0.36266970873512305  0.8747369179488677  Uiso  ?  Ce
O1  1.0  0.5466953374045888  0.3755198597864428  0.8413577467102488  Uiso  ?  O
O1  1.0  0.5144079278238106  0.38672182593000104  0.8667877535875277  Uiso  ?  O
Ce1  1.0  0.4810309379106624  0.3742294203704987  0.8654487897031469  Uiso  ?  Ce
O1  1.0  0.4819318742801633  0.4026289889126702  0.8949544218765779  Uiso  ?  O
O1  1.0  0.15787617994597533  0.25222018172630545  0.17993939391400796  Uiso  ?  O
O1  1.0  0.18216984652823084  0.2515740120772647  0.21738389656521204  Uiso  ?  O
O1  1.0  0.2936564175195775  0.2623218008286438  0.13615825279062432  Uiso  ?  O
O1  1.0  0.3008956714455948  0.30395656312779346  0.13579421711245845  Uiso  ?  O
Ce1  1.0  0.26808187629320074  0.28915739048855943  0.13065920159632716  Uiso  ?  Ce
Ce1  1.0  0.22632156573407536  0.2556031441167652  0.16211073816642935  Uiso  ?  Ce
O1  1.0  0.23544972432924863  0.27481467429184775  0.1308798883201336  Uiso  ?  O
O1  1.0  0.26128967208151527  0.27356890502040393  0.1670248564930027  Uiso  ?  O
O1  1.0  0.19921108254950953  0.2850340390795629  0.1523229015340768  Uiso  ?  O
O1  1.0  0.2235231442520218  0.2824476582929164  0.18885693427557543  Uiso  ?  O
O1  1.0  0.24902639228527967  0.3149268083388435  0.12234369534330883  Uiso  ?  O
O1  1.0  0.26914125660133104  0.3129436689230158  0.16115589014733703  Uiso  ?  O
O1  1.0  0.21345076872521512  0.3238547192090542  0.145564711730647  Uiso  ?  O
O1  1.0  0.23563539314536838  0.3247103087255797  0.18455519596150383  Uiso  ?  O
Ce1  1.0  0.16835458796584105  0.2689146694681284  0.1478008245762457  Uiso  ?  Ce
Ce1  1.0  0.2029672127955675  0.3113401511835233  0.17752560449969124  Uiso  ?  Ce
Ce1  1.0  0.15860392544792482  0.27760661416062804  0.20690175927916696  Uiso  ?  Ce
O1  1.0  0.16743633342645106  0.2968297429685167  0.17544479852114472  Uiso  ?  O
O1  1.0  0.19169535263396598  0.294151267420666  0.21007055766396726  Uiso  ?  O
O1  1.0  0.15769646751190325  0.30707218536665637  0.23417941484200924  Uiso  ?  O
O1  1.0  0.20409143783281902  0.2506427959774155  0.2489673018566941  Uiso  ?  O
O1  1.0  0.23135794963994777  0.25068908514926  0.2885784314263153  Uiso  ?  O
O1  1.0  0.1709281501319698  0.26201044223696696  0.27303256817512533  Uiso  ?  O
O1  1.0  0.19574067943206927  0.25962015291803353  0.30926812872872944  Uiso  ?  O
O1  1.0  0.16012438078315339  0.2710266492286341  0.331784101897111  Uiso  ?  O
O1  1.0  0.45188336022589615  0.2700887203750406  0.13602544257812738  Uiso  ?  O
O1  1.0  0.3941172585467028  0.27741487248271623  0.12295686490951249  Uiso  ?  O
O1  1.0  0.4159730721686533  0.27668852632780777  0.1585304462475965  Uiso  ?  O
Ce1  1.0  0.3246615285723628  0.2734872481216986  0.1439522872893323  Uiso  ?  Ce
Ce1  1.0  0.38600216618937655  0.26233229727074736  0.1593329906424973  Uiso  ?  Ce
O1  1.0  0.31644864751725094  0.2598599518618352  0.17609062240161288  Uiso  ?  O
O1  1.0  0.3422823228957786  0.25763671091850204  0.207118971728173  Uiso  ?  O
O1  1.0  0.35860145327691506  0.29027340807120383  0.14494580112051308  Uiso  ?  O
O1  1.0  0.3836061221785264  0.2911621539345171  0.18177765839754895  Uiso  ?  O
O1  1.0  0.32531296734898796  0.3045453533124739  0.17067582062496672  Uiso  ?  O
O1  1.0  0.3522045297274217  0.29995533374245487  0.20349454608705977  Uiso  ?  O
Ce1  1.0  0.2586787812965633  0.2995603978243168  0.19125466824436918  Uiso  ?  Ce
Ce1  1.0  0.3165439661813301  0.28503325618024494  0.20164091497751319  Uiso  ?  Ce
Ce1  1.0  0.2711275573613335  0.2580619765835919  0.23092237989080286  Uiso  ?  Ce
O1  1.0  0.28348055035088354  0.27165861769517075  0.19959378907935119  Uiso  ?  O
O1  1.0  0.3092130557046201  0.2701606184857586  0.23464112326894318  Uiso  ?  O
O1  1.0  0.25175224897942616  0.2809429221499906  0.22246589599805833  Uiso  ?  O
O1  1.0  0.2734897187596451  0.27977018181382873  0.25782102710754545  Uiso  ?  O
O1  1.0  0.29152564707901174  0.31321192391824954  0.19425367647891348  Uiso  ?  O
O1  1.0  0.3174873062822583  0.31277815354582866  0.22769811127918446  Uiso  ?  O
O1  1.0  0.25914674880917915  0.32011924851592904  0.2168646771810206  Uiso  ?  O
O1  1.0  0.2842549969006068  0.3184760034448434  0.2552309860127436  Uiso  ?  O
Ce1  1.0  0.21518244124331667  0.2656050238667511  0.21828430081106903  Uiso  ?  Ce
Ce1  1.0  0.19020351033710456  0.32173340212160095  0.23729210073934248  Uiso  ?  Ce
Ce1  1.0  0.24994490791594795  0.3071463017911736  0.24743573802463784  Uiso  ?  Ce
Ce1  1.0  0.20412540776267651  0.2771283446327427  0.275954695554016  Uiso  ?  Ce
O1  1.0  0.2141303253383038  0.29414882452257674  0.2464593370229941  Uiso  ?  O
O1  1.0  0.24060618898460148  0.28990706683230044  0.2833602612061278  Uiso  ?  O
O1  1.0  0.17967085211749179  0.30482712958387553  0.26934535584301167  Uiso  ?  O
O1  1.0  0.20315143465600002  0.3007134071273651  0.30242677039291105  Uiso  ?  O
O1  1.0  0.24690671305423223  0.33340100374618054  0.2739608334969944  Uiso  ?  O
Ce1  1.0  0.18118852841254027  0.3293017496384285  0.29554994263668943  Uiso  ?  Ce
O1  1.0  0.16946659925899685  0.31440968817211207  0.32479885673042064  Uiso  ?  O
Ce1  1.0  0.4265241533171306  0.2965102264612632  0.12509842241013447  Uiso  ?  Ce
O1  1.0  0.46314909537697563  0.31135587242395796  0.13189531756780234  Uiso  ?  O
O1  1.0  0.43023762060586357  0.320739314754028  0.15370604327095194  Uiso  ?  O
Ce1  1.0  0.3609225600193676  0.314341621432854  0.17254794849445207  Uiso  ?  Ce
O1  1.0  0.3684874405670363  0.3350890501693227  0.13930143105672912  Uiso  ?  O
O1  1.0  0.3927921380997918  0.33147189100470914  0.17370305933849017  Uiso  ?  O
Ce1  1.0  0.3040552068316161  0.3278224088732256  0.16221478981248902  Uiso  ?  Ce
O1  1.0  0.2183995847831298  0.25878048295903455  0.3464661936612089  Uiso  ?  O
O1  1.0  0.24531779315734728  0.25530957426769724  0.3809496536868246  Uiso  ?  O
O1  1.0  0.18389303491899373  0.2727301005615537  0.3677020857938815  Uiso  ?  O
O1  1.0  0.20947660480519456  0.26804159963198904  0.4017858566054462  Uiso  ?  O
O1  1.0  0.17680950069143206  0.2792681639161898  0.4254246457050517  Uiso  ?  O
O1  1.0  0.5076678139184648  0.25726086899861733  0.1471808850760594  Uiso  ?  O
O1  1.0  0.5331926657200805  0.25644938432611364  0.18440482809856742  Uiso  ?  O
Ce1  1.0  0.4460036479209612  0.25318428948153043  0.1684239189553863  Uiso  ?  Ce
O1  1.0  0.4754057261164324  0.2671599362863607  0.1680656030248284  Uiso  ?  O
O1  1.0  0.4970364560291642  0.2648410609805112  0.20447905196891086  Uiso  ?  O
O1  1.0  0.4404892054053558  0.2794315419883169  0.1939949156674316  Uiso  ?  O
O1  1.0  0.46518168245746244  0.279758648289082  0.22908930532647573  Uiso  ?  O
Ce1  1.0  0.3741748465514934  0.2734777324860848  0.21473014363173967  Uiso  ?  Ce
Ce1  1.0  0.43241644962585674  0.26107770425460436  0.22378530910813893  Uiso  ?  Ce
O1  1.0  0.36510292708640574  0.2601291431195672  0.24788718238931537  Uiso  ?  O
O1  1.0  0.3890799369593337  0.25549926695466996  0.28094111582633813  Uiso  ?  O
O1  1.0  0.4078737803423499  0.28740857516288465  0.21604691755000305  Uiso  ?  O
O1  1.0  0.4321322465954078  0.288141354298054  0.25270036183146616  Uiso  ?  O
O1  1.0  0.37310194561937826  0.3025494811099684  0.2406647167451787  Uiso  ?  O
O1  1.0  0.3985917532265406  0.2990594345291958  0.2748994906899562  Uiso  ?  O
Ce1  1.0  0.3076563348575878  0.2970757942708794  0.2576526691031013  Uiso  ?  Ce
Ce1  1.0  0.36477131442195976  0.2857330290985473  0.27267266605643653  Uiso  ?  Ce
Ce1  1.0  0.31917676653155774  0.2513323891086763  0.30257030591149425  Uiso  ?  Ce
O1  1.0  0.32916580227349757  0.26665959755734103  0.2723959541772913  Uiso  ?  O
O1  1.0  0.35309301627536555  0.26805859694769796  0.30333814897080164  Uiso  ?  O
O1  1.0  0.29749454116699675  0.2803813545556387  0.2904451540771398  Uiso  ?  O
O1  1.0  0.3185739775859236  0.27853807962848826  0.3267500293495351  Uiso  ?  O
O1  1.0  0.3404197203734542  0.30933621229155744  0.264362824931397  Uiso  ?  O
O1  1.0  0.36490612413344525  0.30809185736869604  0.2966849405604169  Uiso  ?  O
O1  1.0  0.30710491784609817  0.3191853963636295  0.2849851871949529  Uiso  ?  O
O1  1.0  0.33018852533077403  0.3219888028296658  0.320730691045259  Uiso  ?  O
Ce1  1.0  0.26187353900769433  0.264391314840397  0.2877770447064287  Uiso  ?  Ce
Ce1  1.0  0.23866403398355024  0.31882484988433374  0.3067253933555051  Uiso  ?  Ce
Ce1  1.0  0.2972616574712747  0.3057859019229453  0.32020164298225867  Uiso  ?  Ce
Ce1  1.0  0.2547440389867199  0.274290939754983  0.3448659123569497  Uiso  ?  Ce
O1  1.0  0.2621514777981513  0.289380386544948  0.31684434546443796  Uiso  ?  O
O1  1.0  0.2861582927174138  0.28774537339341055  0.35156699041429945  Uiso  ?  O
O1  1.0  0.22980846801392732  0.2994412104760948  0.3410002852477397  Uiso  ?  O
O1  1.0  0.2524782591700609  0.30095827186581897  0.3745729345166164  Uiso  ?  O
O1  1.0  0.27306184776066345  0.3298554027579965  0.30849487726678426  Uiso  ?  O
O1  1.0  0.2955074131287536  0.32800450624867833  0.3452007545200196  Uiso  ?  O
Ce1  1.0  0.19633163751442623  0.28622488379068917  0.3366307523454105  Uiso  ?  Ce
Ce1  1.0  0.22996321667592495  0.32833109772654095  0.3651643805505757  Uiso  ?  Ce
Ce1  1.0  0.18456999501626556  0.2954785392947767  0.3956383400911517  Uiso  ?  Ce
O1  1.0  0.19539088080780936  0.31308547257803704  0.3605168159910368  Uiso  ?  O
O1  1.0  0.2199020547971647  0.31129356398084984  0.3986504153816942  Uiso  ?  O
O1  1.0  0.16158661370677166  0.32268672472008014  0.38403784780659306  Uiso  ?  O
O1  1.0  0.18589687655644024  0.321100305448533  0.4183304387746801  Uiso  ?  O
Ce1  1.0  0.5418534156172203  0.2668331898507595  0.15122541262080869  Uiso  ?  Ce
O1  1.0  0.5742874452637197  0.28516433359216425  0.15462832280722152  Uiso  ?  O
O1  1.0  0.5183597481238681  0.29833050079295875  0.1386871004952611  Uiso  ?  O
O1  1.0  0.5440183932182726  0.2980643812841837  0.17779761449697676  Uiso  ?  O
O1  1.0  0.5855525906169977  0.3249746156898836  0.1472722349361868  Uiso  ?  O
Ce1  1.0  0.4839799530612016  0.282392144936185  0.1374041554341554  Uiso  ?  Ce
Ce1  1.0  0.5211256007689078  0.3200741663139597  0.1674296698338699  Uiso  ?  Ce
Ce1  1.0  0.4768004565703536  0.29183017444160925  0.1928374126813627  Uiso  ?  Ce
O1  1.0  0.48283351351691833  0.3037369795354595  0.1672269726995668  Uiso  ?  O
O1  1.0  0.5073653195389292  0.30627300109992006  0.20010434515844927  Uiso  ?  O
O1  1.0  0.4513005002968382  0.3189145445519891  0.1885033816475981  Uiso  ?  O
O1  1.0  0.475582546328682  0.3167487226627736  0.22249108873978077  Uiso  ?  O
Ce1  1.0  0.4192615767971642  0.30271751459161844  0.18496789981248452  Uiso  ?  Ce
Ce1  1.0  0.40905871337683186  0.3112335005032797  0.24280389811081027  Uiso  ?  Ce
O1  1.0  0.4160424303032628  0.32955457123349025  0.20925502191658302  Uiso  ?  O
O1  1.0  0.44070826592102125  0.3268118532491112  0.24722369253894122  Uiso  ?  O
Ce1  1.0  0.3522372961715116  0.3262588878591682  0.23166450701924318  Uiso  ?  Ce
O1  1.0  0.268697646471737  0.2575636237242795  0.41482770440303657  Uiso  ?  O
O1  1.0  0.29076511148023226  0.2560590139033081  0.4486199272186353  Uiso  ?  O
Ce1  1.0  0.19986171675499487  0.255409676100987  0.43189915144665914  Uiso  ?  Ce
O1  1.0  0.23546378678817118  0.2692170189860754  0.43530977402333204  Uiso  ?  O
O1  1.0  0.25604493418669383  0.26815998238556127  0.4729584134037546  Uiso  ?  O
O1  1.0  0.19859788758992866  0.27950976117440485  0.46035284567962  Uiso  ?  O
O1  1.0  0.22453212632882502  0.27801836119442175  0.4969353009834976  Uiso  ?  O
Ce1  1.0  0.1904353778412764  0.262083904264462  0.49390363605178544  Uiso  ?  Ce
O1  1.0  0.16736012974991463  0.28943736280218046  0.48152009826747283  Uiso  ?  O
O1  1.0  0.19269507534643662  0.2884144477106188  0.5183986848283939  Uiso  ?  O
O1  1.0  0.5558258134548073  0.25578279717773983  0.21982176855408225  Uiso  ?  O
O1  1.0  0.5821391478431117  0.2559820716906082  0.2508309403636341  Uiso  ?  O
O1  1.0  0.5223290758392776  0.2653248207061686  0.2413589234119659  Uiso  ?  O
O1  1.0  0.5464233786146577  0.2627477905737288  0.2773383782621746  Uiso  ?  O
O1  1.0  0.4914225182587717  0.2742017730771935  0.2622226392692116  Uiso  ?  O
O1  1.0  0.5099486032804199  0.2734367157259923  0.30238535423686197  Uiso  ?  O
Ce1  1.0  0.42703430075801574  0.27046479338460155  0.2839216978661189  Uiso  ?  Ce
Ce1  1.0  0.4762236776039895  0.256889654500038  0.29123834927071335  Uiso  ?  Ce
O1  1.0  0.4128841790469226  0.2564150293358681  0.31486634444623546  Uiso  ?  O
O1  1.0  0.4369061935507186  0.2539625227181324  0.35011000816354065  Uiso  ?  O
O1  1.0  0.4525680890720928  0.2842979293645291  0.284459811832986  Uiso  ?  O
O1  1.0  0.4777312334009215  0.285440697788465  0.32154051604386125  Uiso  ?  O
O1  1.0  0.4196309503505938  0.2987008399746437  0.31029233027956066  Uiso  ?  O
O1  1.0  0.4458459553677346  0.296893811585008  0.3457323279673428  Uiso  ?  O
Ce1  1.0  0.35182473292135885  0.29275709634932834  0.32952146597460596  Uiso  ?  Ce
Ce1  1.0  0.40921415433066183  0.2821396445103561  0.3389803035449112  Uiso  ?  Ce
Ce1  1.0  0.3680499345602573  0.2522289565470506  0.3703126849145762  Uiso  ?  Ce
O1  1.0  0.37596081723590247  0.2658477466506443  0.33790525645881453  Uiso  ?  O
O1  1.0  0.40109004102817747  0.26416113153948106  0.37470652364935153  Uiso  ?  O
O1  1.0  0.34637293168177435  0.2781077518834192  0.3622172392767821  Uiso  ?  O
O1  1.0  0.3697616442349515  0.27822575230502866  0.3973094714198365  Uiso  ?  O
O1  1.0  0.3882914494268062  0.30656908209985545  0.33114315686544593  Uiso  ?  O
O1  1.0  0.4109150602105281  0.30801976869728254  0.3679498952127664  Uiso  ?  O
O1  1.0  0.3538722988058522  0.31768664115855433  0.3574209080821354  Uiso  ?  O
O1  1.0  0.3768092571389835  0.3174841133055164  0.3946365370533096  Uiso  ?  O
Ce1  1.0  0.3124159231836555  0.26375426542887315  0.3556250137665251  Uiso  ?  Ce
Ce1  1.0  0.28457362871837427  0.315766187374834  0.3761980170026649  Uiso  ?  Ce
Ce1  1.0  0.3445435882440241  0.3016439509085637  0.39154573952879407  Uiso  ?  Ce
Ce1  1.0  0.302395954940652  0.270785296937239  0.41563625942555354  Uiso  ?  Ce
O1  1.0  0.3088551141682957  0.287321792550512  0.38633784632374435  Uiso  ?  O
O1  1.0  0.33578711868989974  0.2858507487208302  0.4207934648960949  Uiso  ?  O
O1  1.0  0.27777167646224504  0.2968376811021695  0.40762218484339974  Uiso  ?  O
O1  1.0  0.2992317833133114  0.29736520181069065  0.44545484517092715  Uiso  ?  O
O1  1.0  0.3192538943167275  0.32786001679911925  0.3812085226472119  Uiso  ?  O
O1  1.0  0.34511985447344284  0.3292946444224442  0.41428009297824087  Uiso  ?  O
Ce1  1.0  0.24414293363560785  0.28369551164008305  0.40657832605468436  Uiso  ?  Ce
Ce1  1.0  0.27439470170262154  0.328149928872444  0.43705985492043586  Uiso  ?  Ce
Ce1  1.0  0.23340458616365306  0.2925947866948961  0.4658136629780295  Uiso  ?  Ce
O1  1.0  0.24466178451005138  0.307886572343108  0.4314867042278079  Uiso  ?  O
O1  1.0  0.267825068507233  0.31001179706468857  0.46272384421036133  Uiso  ?  O
O1  1.0  0.20767145810307464  0.3225346514371586  0.4557902685710548  Uiso  ?  O
O1  1.0  0.23573987415882905  0.3222559768767237  0.4915983595131983  Uiso  ?  O
Ce1  1.0  0.1770402082896245  0.3046587461724001  0.450507102252663  Uiso  ?  Ce
Ce1  1.0  0.1656519807517999  0.31564800816334637  0.5110210790434077  Uiso  ?  Ce
O1  1.0  0.17619510074161257  0.33055845280734397  0.47773927521070453  Uiso  ?  O
O1  1.0  0.19928039089113486  0.3309502594106949  0.5139349059388925  Uiso  ?  O
Ce1  1.0  0.7004077300399091  0.27525686922005943  0.1488974952465505  Uiso  ?  Ce
O1  1.0  0.6680816085232807  0.260096507033629  0.14226418171055186  Uiso  ?  O
O1  1.0  0.6917833215469505  0.26100118798393496  0.17665667729560167  Uiso  ?  O
O1  1.0  0.6334881032867654  0.2751226277263547  0.16749646478479036  Uiso  ?  O
O1  1.0  0.6585308444880089  0.2714604541614389  0.2000889854069943  Uiso  ?  O
O1  1.0  0.7008715359718628  0.3011815344473262  0.17102314473566432  Uiso  ?  O
O1  1.0  0.6467432355566741  0.31570404815242925  0.16040457857455406  Uiso  ?  O
O1  1.0  0.6681740163168027  0.31140684160167514  0.19657843351528814  Uiso  ?  O
Ce1  1.0  0.6038840815407762  0.2603004013735118  0.16077243087738696  Uiso  ?  Ce
Ce1  1.0  0.5750611863540601  0.3117132013098095  0.18075181907558308  Uiso  ?  Ce
Ce1  1.0  0.6350901167493961  0.29937543439107095  0.19205024427745682  Uiso  ?  Ce
Ce1  1.0  0.5879439962732289  0.26821877148960543  0.218794237257054  Uiso  ?  Ce
O1  1.0  0.6007289377786055  0.2822182829590222  0.18905783092117306  Uiso  ?  O
O1  1.0  0.6254180572708257  0.28306492730556443  0.2252753672195858  Uiso  ?  O
O1  1.0  0.5689715983851733  0.29547339311691345  0.21525576127122012  Uiso  ?  O
O1  1.0  0.5876863914058172  0.29386564008873084  0.2467491663587366  Uiso  ?  O
O1  1.0  0.6102584873753416  0.32686265361853123  0.1816828176689762  Uiso  ?  O
O1  1.0  0.6321522671874866  0.3252543022285161  0.2171505433518871  Uiso  ?  O
Ce1  1.0  0.5335378328109381  0.28209698764251856  0.21207049370889644  Uiso  ?  Ce
Ce1  1.0  0.5082851522357182  0.3302998306817288  0.22772915771006133  Uiso  ?  Ce
Ce1  1.0  0.5650749195954267  0.3218136666240191  0.2418542258847769  Uiso  ?  Ce
Ce1  1.0  0.5245595293304701  0.28901424451789554  0.2664190600371077  Uiso  ?  Ce
O1  1.0  0.5328469795850188  0.3049660755626877  0.23484062331380837  Uiso  ?  O
O1  1.0  0.5555586563820326  0.30434249520062034  0.2706175344009014  Uiso  ?  O
O1  1.0  0.4989060246806989  0.3143143749059664  0.2596673639879272  Uiso  ?  O
O1  1.0  0.5230332776570752  0.31578401621402313  0.2931983311682462  Uiso  ?  O
Ce1  1.0  0.46679880713114114  0.30075579260585816  0.25773722885034367  Uiso  ?  Ce
Ce1  1.0  0.45649127667360134  0.31208725136570065  0.31364893955096224  Uiso  ?  Ce
O1  1.0  0.463669300445118  0.3259086592597703  0.2821390322467336  Uiso  ?  O
O1  1.0  0.48846901340436893  0.3239430139186559  0.3158729934902586  Uiso  ?  O
Ce1  1.0  0.3959482273639274  0.323539302208449  0.30116909171553274  Uiso  ?  Ce
Ce1  1.0  0.38921740823250944  0.3340502914092669  0.35797491697669015  Uiso  ?  Ce
Ce1  1.0  0.6770624273288304  0.3319854600887881  0.15960408646442864  Uiso  ?  Ce
O1  1.0  0.3146348476642334  0.25857863623870153  0.48334170892148726  Uiso  ?  O
O1  1.0  0.341701387564564  0.2519197525727115  0.5188581350413938  Uiso  ?  O
Ce1  1.0  0.24922505769164682  0.25351680090391976  0.5042395509304364  Uiso  ?  Ce
O1  1.0  0.28246274699710733  0.2652690372844662  0.5089966559627295  Uiso  ?  O
O1  1.0  0.30231314100172063  0.2636837321951049  0.5416197015908937  Uiso  ?  O
O1  1.0  0.24727997145561395  0.27756635285323866  0.5307278496481954  Uiso  ?  O
O1  1.0  0.2710689661898753  0.27568703409113565  0.5662137601229158  Uiso  ?  O
Ce1  1.0  0.17912618497542587  0.27201877249398415  0.5497394038934188  Uiso  ?  Ce
Ce1  1.0  0.23856132773937652  0.25850584120957415  0.5624728763587106  Uiso  ?  Ce
O1  1.0  0.16641150145125094  0.2575083503382988  0.5824379865895869  Uiso  ?  O
O1  1.0  0.1945913759419711  0.25784224882493745  0.6192902091308037  Uiso  ?  O
O1  1.0  0.21286440047826025  0.2893958534432309  0.5535641428995363  Uiso  ?  O
O1  1.0  0.23851287554855552  0.2869815480028252  0.5903870621117132  Uiso  ?  O
O1  1.0  0.17665259403501163  0.30060960586766916  0.579770502044569  Uiso  ?  O
O1  1.0  0.20373836135213066  0.29563271885618614  0.6160840902788579  Uiso  ?  O
Ce1  1.0  0.1679386778563991  0.28236342505604534  0.6092979792158876  Uiso  ?  Ce
O1  1.0  0.15926429257257949  0.27059906005132534  0.641137469740395  Uiso  ?  O
O1  1.0  0.16907442699667316  0.3092729914052706  0.6365022118776434  Uiso  ?  O
O1  1.0  0.6048515364340057  0.2499867778431516  0.2859121516872994  Uiso  ?  O
O1  1.0  0.5692520592609241  0.26200125403476565  0.3098509260590734  Uiso  ?  O
O1  1.0  0.5942075565172984  0.26117094169922506  0.3463891568023551  Uiso  ?  O
O1  1.0  0.5362709509873996  0.27279183536282914  0.33484942438581117  Uiso  ?  O
O1  1.0  0.5624353253810013  0.2719010518375498  0.3678385353810908  Uiso  ?  O
Ce1  1.0  0.46721180957265057  0.27009790383033466  0.3556351819602547  Uiso  ?  Ce
Ce1  1.0  0.526922154202573  0.2586823848492436  0.36680414459546257  Uiso  ?  Ce
O1  1.0  0.4609002298728175  0.25401874356963816  0.3868398173108164  Uiso  ?  O
O1  1.0  0.4839439553121689  0.2512793164381736  0.4214402160414988  Uiso  ?  O
O1  1.0  0.5037643600958425  0.2834129285624227  0.3549122004943593  Uiso  ?  O
O1  1.0  0.5266036192969866  0.28235366153869856  0.39097630219156115  Uiso  ?  O
O1  1.0  0.47083057795924854  0.2950135240374017  0.37933192109050534  Uiso  ?  O
O1  1.0  0.4937013058050102  0.29466599888826395  0.41443911579139414  Uiso  ?  O
Ce1  1.0  0.40516910530567457  0.28965807568427665  0.40250811885718835  Uiso  ?  Ce
Ce1  1.0  0.45794698335373757  0.27594566813699584  0.4105132924708492  Uiso  ?  Ce
O1  1.0  0.42387641363917666  0.2638546840184678  0.41060128643315513  Uiso  ?  O
O1  1.0  0.44807907206295555  0.26401248042143083  0.4446849125085475  Uiso  ?  O
O1  1.0  0.3903413964626865  0.2761272494615453  0.43171283387368725  Uiso  ?  O
O1  1.0  0.4138681855953479  0.27246594386653833  0.4716075817956056  Uiso  ?  O
O1  1.0  0.4386316084763385  0.30308024380429094  0.40619080385449596  Uiso  ?  O
O1  1.0  0.4607522631593873  0.30739461520580086  0.4401734502789608  Uiso  ?  O
O1  1.0  0.402335230875297  0.3142823782764414  0.4254422383560709  Uiso  ?  O
O1  1.0  0.4283275379644031  0.31385645110918303  0.4579978285864937  Uiso  ?  O
Ce1  1.0  0.3601991716795054  0.26158746273250455  0.42775678390332966  Uiso  ?  Ce
Ce1  1.0  0.3331747652495046  0.3154874466762604  0.4472770608052609  Uiso  ?  Ce
Ce1  1.0  0.3916450465247702  0.30273234995120146  0.45905902405693816  Uiso  ?  Ce
Ce1  1.0  0.3458374102591344  0.26960889067733734  0.4876314947171795  Uiso  ?  Ce
O1  1.0  0.35847341251031006  0.28729121337157587  0.4563142829574051  Uiso  ?  O
O1  1.0  0.38258796985260735  0.28382609744943127  0.49357136102118426  Uiso  ?  O
O1  1.0  0.3242234100840325  0.2964578220164472  0.4795794188958096  Uiso  ?  O
O1  1.0  0.34901657324300384  0.2933061029011557  0.513580738484327  Uiso  ?  O
O1  1.0  0.36838496037678814  0.32589143630666056  0.449264541892042  Uiso  ?  O
O1  1.0  0.3936838782723624  0.32461507249790816  0.48461427148656244  Uiso  ?  O
Ce1  1.0  0.2903825567546775  0.2810248284100368  0.47812027674732627  Uiso  ?  Ce
Ce1  1.0  0.3259335032245726  0.3212362328850934  0.5063475763720963  Uiso  ?  Ce
Ce1  1.0  0.28392218947353987  0.2921548485440612  0.5347451341071361  Uiso  ?  Ce
O1  1.0  0.2913915483247678  0.30961357569503634  0.5041079149266937  Uiso  ?  O
O1  1.0  0.31322228848945743  0.30484638919547463  0.5385547047859051  Uiso  ?  O
O1  1.0  0.2588956247816692  0.3175731322889599  0.5288046936015254  Uiso  ?  O
O1  1.0  0.2801218251800644  0.314379141181055  0.560960109488035  Uiso  ?  O
Ce1  1.0  0.2248838369139453  0.3028459073225718  0.521786888552235  Uiso  ?  Ce
Ce1  1.0  0.21358710596374608  0.3150570841723323  0.5806213841853896  Uiso  ?  Ce
O1  1.0  0.22305951193089923  0.3278325340999641  0.5488382938851476  Uiso  ?  O
O1  1.0  0.2498707332555517  0.3294923937901651  0.5874929803647424  Uiso  ?  O
Ce1  1.0  0.15739852631244614  0.3227193082280617  0.5661129322987933  Uiso  ?  Ce
Ce1  1.0  0.7606676430778961  0.265861488675562  0.15464007491470028  Uiso  ?  Ce
O1  1.0  0.7604140077428949  0.2904268905718702  0.1840003293000212  Uiso  ?  O
Ce1  1.0  0.6909910080937615  0.284987024769299  0.20376607576722994  Uiso  ?  Ce
Ce1  1.0  0.7511375756359888  0.27615737932432005  0.21579464511407134  Uiso  ?  Ce
O1  1.0  0.7154935486331957  0.2615377182099013  0.21250203942688392  Uiso  ?  O
O1  1.0  0.7402908741152723  0.25915430990402843  0.24561425617754706  Uiso  ?  O
O1  1.0  0.6825197006909218  0.27252901865559276  0.2362177586558106  Uiso  ?  O
O1  1.0  0.7060847515426322  0.26995106697816845  0.26925200758255907  Uiso  ?  O
O1  1.0  0.724719445538594  0.3009082502032965  0.20869255180044802  Uiso  ?  O
O1  1.0  0.748851675857692  0.29937168771748607  0.24109879019371055  Uiso  ?  O
O1  1.0  0.6921899737512996  0.3104206479576188  0.2339714981794531  Uiso  ?  O
O1  1.0  0.7128360424615628  0.31204477933831054  0.26735803706205746  Uiso  ?  O
Ce1  1.0  0.6486592439654006  0.25816113181876793  0.23265216317282456  Uiso  ?  Ce
Ce1  1.0  0.623691095283048  0.30771370897979206  0.2525109683996508  Uiso  ?  Ce
Ce1  1.0  0.6772393046554397  0.29797144896053995  0.2638058620558295  Uiso  ?  Ce
Ce1  1.0  0.6375793452462082  0.2648999127625037  0.2910892174108265  Uiso  ?  Ce
O1  1.0  0.6489750438534256  0.28227233690250414  0.261152855358475  Uiso  ?  O
O1  1.0  0.6729555064056495  0.28270643223922876  0.29387384163093316  Uiso  ?  O
O1  1.0  0.6149480430031388  0.2936707948857433  0.2818307419039874  Uiso  ?  O
O1  1.0  0.6384660178123086  0.2932095524611634  0.3164158780739482  Uiso  ?  O
O1  1.0  0.6589314773075277  0.32179384232470376  0.25529452320492524  Uiso  ?  O
O1  1.0  0.6806237916775362  0.32473754706466734  0.28974846647626534  Uiso  ?  O
O1  1.0  0.6233660074088557  0.3342654547933564  0.27682011245017596  Uiso  ?  O
O1  1.0  0.6496661362425299  0.3364708218528697  0.3135823985759608  Uiso  ?  O
Ce1  1.0  0.5797270192728342  0.27656559436581885  0.2791705519546694  Uiso  ?  Ce
Ce1  1.0  0.5566176072520215  0.33183098301977026  0.29665530935279166  Uiso  ?  Ce
Ce1  1.0  0.6113150698109336  0.3185763532128478  0.30739183147554117  Uiso  ?  Ce
Ce1  1.0  0.5677008739920867  0.2917827629237487  0.33597557046383014  Uiso  ?  Ce
O1  1.0  0.5787288811310948  0.30232207488230367  0.30483423434794593  Uiso  ?  O
O1  1.0  0.6033593015101701  0.3008511967348595  0.343097811614135  Uiso  ?  O
O1  1.0  0.5467966292352787  0.3142726113527806  0.3298362345040286  Uiso  ?  O
O1  1.0  0.5708448981590318  0.314341038683429  0.36338267735745877  Uiso  ?  O
Ce1  1.0  0.5140693525634644  0.29897247823010653  0.3256089841837292  Uiso  ?  Ce
Ce1  1.0  0.5041270410951161  0.3087096864026441  0.3844241666175679  Uiso  ?  Ce
O1  1.0  0.5129939025625667  0.32465816318707474  0.3493533160081676  Uiso  ?  O
O1  1.0  0.5356366561385589  0.32103801273543103  0.38892594047629625  Uiso  ?  O
Ce1  1.0  0.44397900425049625  0.32126593110209506  0.3734201767341332  Uiso  ?  Ce
Ce1  1.0  0.43911395539270637  0.32984938819919984  0.43008418196695775  Uiso  ?  Ce
O1  1.0  0.7675127385390405  0.3309375932240907  0.18108678328285827  Uiso  ?  O
Ce1  1.0  0.7343228310374479  0.3176134806561968  0.17497390319115086  Uiso  ?  Ce
Ce1  1.0  0.7256975024623922  0.32687066223016986  0.23256627197458313  Uiso  ?  Ce
O1  1.0  0.36307168851944976  0.253562108994336  0.5539061252269943  Uiso  ?  O
O1  1.0  0.3858138953611842  0.2510468230714543  0.5900951289110835  Uiso  ?  O
O1  1.0  0.32877266243197284  0.26510549111797266  0.5773962020414  Uiso  ?  O
O1  1.0  0.3512557630256198  0.2621274824986344  0.6122484147691784  Uiso  ?  O
O1  1.0  0.2940842211367754  0.27688753062423593  0.6018956879444722  Uiso  ?  O
O1  1.0  0.31965048972271654  0.2732513888783446  0.6359477655394069  Uiso  ?  O
Ce1  1.0  0.2268499306435659  0.26983173648007946  0.6212588489915799  Uiso  ?  Ce
Ce1  1.0  0.28548379729174117  0.2601484843140645  0.6314059322433396  Uiso  ?  Ce
O1  1.0  0.21961131034236697  0.25425104144108446  0.6515986211440759  Uiso  ?  O
O1  1.0  0.24220966366897656  0.2560964662052966  0.6896871180883043  Uiso  ?  O
O1  1.0  0.2630466884721152  0.2831632423207429  0.6229164347400693  Uiso  ?  O
O1  1.0  0.2833459802284307  0.28524083098496644  0.6579709943185953  Uiso  ?  O
O1  1.0  0.22645080938526208  0.29812098563453554  0.6459474753836736  Uiso  ?  O
O1  1.0  0.2535947131615911  0.29481683577574697  0.6816649255051339  Uiso  ?  O
Ce1  1.0  0.161262461623836  0.2911392630144061  0.6656585458010194  Uiso  ?  Ce
Ce1  1.0  0.2190406159074339  0.2797606792686888  0.6784521495359014  Uiso  ?  Ce
O1  1.0  0.18338498048498073  0.26494708617378215  0.677226576863972  Uiso  ?  O
O1  1.0  0.20681824182981284  0.2674720769454614  0.706776977605064  Uiso  ?  O
O1  1.0  0.17589793562736247  0.2774116705348663  0.7323687467827779  Uiso  ?  O
O1  1.0  0.19379220093660193  0.3057291131106946  0.6688614492413119  Uiso  ?  O
O1  1.0  0.21983059933235824  0.3065592002160902  0.7042751235216537  Uiso  ?  O
O1  1.0  0.16165235556227653  0.3159163421998737  0.6923828413450902  Uiso  ?  O
O1  1.0  0.18452111696392537  0.31596245748001567  0.7320274642051041  Uiso  ?  O
O1  1.0  0.6175664971148734  0.25838012190095144  0.38099983437774987  Uiso  ?  O
O1  1.0  0.6430285428435785  0.25940370338009966  0.4137338400599396  Uiso  ?  O
O1  1.0  0.5847637722466563  0.2713996254018834  0.4028379012528012  Uiso  ?  O
O1  1.0  0.6108568336812117  0.2709430601771413  0.44109889530217666  Uiso  ?  O
Ce1  1.0  0.5182294612001328  0.26670592999525145  0.42608807580058006  Uiso  ?  Ce
Ce1  1.0  0.5712459462029174  0.253209977521938  0.4373406822403418  Uiso  ?  Ce
O1  1.0  0.5058641420608945  0.25076349134913056  0.4545889576030533  Uiso  ?  O
O1  1.0  0.5514765649372081  0.2794760039386852  0.42624932104929336  Uiso  ?  O
O1  1.0  0.577726435897947  0.2821517330480873  0.4629579038810168  Uiso  ?  O
O1  1.0  0.5176701351190602  0.2922651428446322  0.4523142114609269  Uiso  ?  O
O1  1.0  0.5416949321986813  0.29168936688937097  0.48751365948868025  Uiso  ?  O
Ce1  1.0  0.45080913157941027  0.2902242824243228  0.47336213767040225  Uiso  ?  Ce
Ce1  1.0  0.5057623491715654  0.2769087725176428  0.48371523880433454  Uiso  ?  Ce
O1  1.0  0.47275560553158086  0.26349894715656996  0.4776863781655059  Uiso  ?  O
O1  1.0  0.4978259903505804  0.2595826206717325  0.5150919506729241  Uiso  ?  O
O1  1.0  0.4415053385642635  0.2706722111919182  0.5037206946835473  Uiso  ?  O
O1  1.0  0.4636014659515739  0.2731732502763636  0.5390572785556335  Uiso  ?  O
O1  1.0  0.48626328717506767  0.30297728945271085  0.4739974719645967  Uiso  ?  O
O1  1.0  0.5082687452524991  0.3012849299782103  0.5090095437358971  Uiso  ?  O
O1  1.0  0.447754167423269  0.3113866504645086  0.4978702377543195  Uiso  ?  O
O1  1.0  0.47287370917588595  0.31205242774474984  0.5345075263157758  Uiso  ?  O
Ce1  1.0  0.4051076421552358  0.260952771825915  0.4986078170456511  Uiso  ?  Ce
Ce1  1.0  0.3824046136629989  0.3119373072384231  0.5154339143249613  Uiso  ?  Ce
Ce1  1.0  0.44035563937310973  0.29748114563704614  0.5306398023234493  Uiso  ?  Ce
Ce1  1.0  0.39631771430774865  0.26744974819551764  0.5572192383615463  Uiso  ?  Ce
O1  1.0  0.40481480166502387  0.28128043523301866  0.5235134581112936  Uiso  ?  O
O1  1.0  0.4324904772340943  0.2825249923248921  0.564142474262138  Uiso  ?  O
O1  1.0  0.3717869541884805  0.2919734464738955  0.5495400372422097  Uiso  ?  O
O1  1.0  0.39806306902647043  0.2934916435903424  0.5842454245564367  Uiso  ?  O
O1  1.0  0.4169278107013863  0.3216466298074094  0.5225670795184303  Uiso  ?  O
O1  1.0  0.4392998142072419  0.32398278705771666  0.5575493048164142  Uiso  ?  O
Ce1  1.0  0.3392908202925828  0.28012239539578815  0.5462518694175048  Uiso  ?  Ce
Ce1  1.0  0.31529077276235784  0.3318162794329814  0.56540159989409  Uiso  ?  Ce
Ce1  1.0  0.3720470285580083  0.31937090510536403  0.5770121716700239  Uiso  ?  Ce
Ce1  1.0  0.3293874625813411  0.2890070659115591  0.60451932842718  Uiso  ?  Ce
O1  1.0  0.33852935654974364  0.30384662368638543  0.5728220347824515  Uiso  ?  O
O1  1.0  0.362879167639066  0.30320941979090016  0.6094034934190062  Uiso  ?  O
O1  1.0  0.3017239614125517  0.3138026400318634  0.5953897192803758  Uiso  ?  O
O1  1.0  0.32794603202106143  0.31483904840485577  0.6318556297184411  Uiso  ?  O
Ce1  1.0  0.2683442966429432  0.30188918888991384  0.5897679024783257  Uiso  ?  Ce
Ce1  1.0  0.2619070453173037  0.3105222593761406  0.6515773388254444  Uiso  ?  Ce
O1  1.0  0.271170616808697  0.3265418687409553  0.618753982815696  Uiso  ?  O
O1  1.0  0.29644584134728896  0.32616572638414865  0.6542536023876535  Uiso  ?  O
Ce1  1.0  0.20422922919422296  0.3238391127197613  0.6408248418884481  Uiso  ?  Ce
Ce1  1.0  0.19533706663265293  0.33368934907364606  0.6992669815409027  Uiso  ?  Ce
Ce1  1.0  0.7373691717152229  0.2836626402686168  0.2776844657068166  Uiso  ?  Ce
O1  1.0  0.7647399913885177  0.2583726251173182  0.28396585184816886  Uiso  ?  O
O1  1.0  0.7295878702564077  0.2708401040660212  0.3045826681087908  Uiso  ?  O
O1  1.0  0.7548772209488509  0.2652345471054364  0.340525695163623  Uiso  ?  O
O1  1.0  0.7750901751517293  0.29739977406929274  0.2805692550529398  Uiso  ?  O
O1  1.0  0.7405875321304674  0.3091134660614018  0.30102810785438666  Uiso  ?  O
O1  1.0  0.7637528446416895  0.3095578520674105  0.332665586559691  Uiso  ?  O
Ce1  1.0  0.6963212768788501  0.25300747237901194  0.30366650611748464  Uiso  ?  Ce
Ce1  1.0  0.6727554619841382  0.30568016539287596  0.32217309254384313  Uiso  ?  Ce
Ce1  1.0  0.7273719101604803  0.29300624118725177  0.33124221634576784  Uiso  ?  Ce
Ce1  1.0  0.6870301796029019  0.26006757161561306  0.3603735738028073  Uiso  ?  Ce
O1  1.0  0.6933500022210971  0.2773202959268304  0.32973485534421254  Uiso  ?  O
O1  1.0  0.7187112432180596  0.27611648664259225  0.3639329362349736  Uiso  ?  O
O1  1.0  0.6617696149736385  0.2904566318126743  0.3529351790936004  Uiso  ?  O
O1  1.0  0.6858948790049245  0.28997858690893247  0.38427838505669953  Uiso  ?  O
O1  1.0  0.7080703331785514  0.32077123868445995  0.3222651043939174  Uiso  ?  O
O1  1.0  0.7267914057965911  0.32011255796850485  0.3590666392644563  Uiso  ?  O
O1  1.0  0.6718478964484866  0.3294011659293331  0.3477419242884888  Uiso  ?  O
O1  1.0  0.6925870334154307  0.32952504795079834  0.38357291396936766  Uiso  ?  O
Ce1  1.0  0.6288922022829664  0.27303080499097376  0.34958412848415915  Uiso  ?  Ce
Ce1  1.0  0.6050836615205529  0.3296894753822535  0.3656105698148865  Uiso  ?  Ce
Ce1  1.0  0.6609072308002697  0.3154918293806273  0.3790424118079752  Uiso  ?  Ce
Ce1  1.0  0.6169299162040759  0.2871137442240068  0.40718730982618234  Uiso  ?  Ce
O1  1.0  0.6262431432094457  0.298843988852414  0.3788625841439045  Uiso  ?  O
O1  1.0  0.6523438916208453  0.2981128049864425  0.4114733829061285  Uiso  ?  O
O1  1.0  0.5931415082392021  0.3118227137194316  0.39916843702228816  Uiso  ?  O
O1  1.0  0.6189605926258988  0.30838252348475403  0.4354221072985233  Uiso  ?  O
Ce1  1.0  0.5587937109952896  0.29569158259584305  0.3944520130251828  Uiso  ?  Ce
Ce1  1.0  0.5491332623986833  0.30907474920116534  0.4546997289784232  Uiso  ?  Ce
O1  1.0  0.5589856292920888  0.3212775050528441  0.4241369077648335  Uiso  ?  O
O1  1.0  0.5833298355639243  0.3189090082592197  0.459148953050941  Uiso  ?  O
O1  1.0  0.5264132706971177  0.33510423547478674  0.445011239386411  Uiso  ?  O
O1  1.0  0.5491016765201366  0.33090077680418706  0.47871874774059364  Uiso  ?  O
Ce1  1.0  0.49220351335216017  0.3171466200668069  0.4439800191112943  Uiso  ?  Ce
Ce1  1.0  0.4819525947166832  0.32916234157124735  0.5012639902376089  Uiso  ?  Ce
Ce1  1.0  0.7694369965924828  0.32512113822839706  0.3018951382497781  Uiso  ?  Ce
O1  1.0  0.4114433635623176  0.24865564536245816  0.624523199668165  Uiso  ?  O
O1  1.0  0.3781334596864696  0.26279834794150975  0.6467768871155882  Uiso  ?  O
O1  1.0  0.4033256127165972  0.26438725798176205  0.6835369495027087  Uiso  ?  O
O1  1.0  0.34560331481938716  0.27231743270370945  0.6700334540689854  Uiso  ?  O
O1  1.0  0.36518178849652644  0.2737594337903419  0.7093842833752269  Uiso  ?  O
Ce1  1.0  0.27581505075243123  0.2683977738518976  0.6905484862883852  Uiso  ?  Ce
Ce1  1.0  0.3349588385842553  0.2558643035920403  0.7007363271051635  Uiso  ?  Ce
O1  1.0  0.2692996110635255  0.253522511308404  0.7212799541097944  Uiso  ?  O
O1  1.0  0.2895208127858891  0.2495691326793306  0.7572444743900193  Uiso  ?  O
O1  1.0  0.31062871485805127  0.28226203080927487  0.6954264491688471  Uiso  ?  O
O1  1.0  0.33111060031158823  0.28049907728989215  0.7311496464115262  Uiso  ?  O
O1  1.0  0.27311337277326736  0.295187797030958  0.7191057562137889  Uiso  ?  O
O1  1.0  0.3005176279868785  0.29194807779375503  0.7529953762447809  Uiso  ?  O
Ce1  1.0  0.20800767159876218  0.28875644561354336  0.7379553853247667  Uiso  ?  Ce
Ce1  1.0  0.2643059254419584  0.27669520086482075  0.748337025188957  Uiso  ?  Ce
O1  1.0  0.23341738973257553  0.26297429268023126  0.7459115343097271  Uiso  ?  O
O1  1.0  0.25622061102910304  0.26164175579020427  0.7824652668290333  Uiso  ?  O
O1  1.0  0.20121439548286654  0.2727650015812135  0.7697478971970723  Uiso  ?  O
O1  1.0  0.22165370173240065  0.2724328368374246  0.8053002975229693  Uiso  ?  O
O1  1.0  0.23983448320234238  0.3028367246671911  0.7416894024113921  Uiso  ?  O
O1  1.0  0.26627853529024287  0.30448493432294427  0.7754297780767874  Uiso  ?  O
O1  1.0  0.21100064137258853  0.31972140021429596  0.7632084627114191  Uiso  ?  O
O1  1.0  0.23169327448294028  0.3134830143408252  0.801914008268724  Uiso  ?  O
Ce1  1.0  0.1640395185667068  0.2601742642007089  0.7649154150046943  Uiso  ?  Ce
Ce1  1.0  0.19656854576541444  0.2980064190100802  0.7967382884506692  Uiso  ?  Ce
Ce1  1.0  0.15740242491786827  0.27039344662331194  0.8249147381881313  Uiso  ?  Ce
O1  1.0  0.16213477854829988  0.28765717195974017  0.7936553583157998  Uiso  ?  O
O1  1.0  0.19069493405984397  0.2814901591635502  0.8303568493798986  Uiso  ?  O
O1  1.0  0.17398357449531732  0.32419098850215167  0.7909572223632472  Uiso  ?  O
O1  1.0  0.19884760921427666  0.3243716683408433  0.8235728293084591  Uiso  ?  O
O1  1.0  0.6673942720647099  0.25720746056775595  0.45100183166434615  Uiso  ?  O
O1  1.0  0.6893638275638818  0.2526412473308528  0.4858351109522059  Uiso  ?  O
O1  1.0  0.6315390309115537  0.26668305777677553  0.47494820648862884  Uiso  ?  O
O1  1.0  0.6560497043101258  0.2677883544358203  0.5108259905339696  Uiso  ?  O
Ce1  1.0  0.5618970471758633  0.2635651340232535  0.4936830520517948  Uiso  ?  Ce
Ce1  1.0  0.6207270553209038  0.2541600738222082  0.5073200225222734  Uiso  ?  Ce
O1  1.0  0.6004284167630083  0.2775630308942547  0.49737977930496646  Uiso  ?  O
O1  1.0  0.6214946058896136  0.2781537597067832  0.5329887399117219  Uiso  ?  O
O1  1.0  0.5666944900780712  0.29052183575987717  0.5208218146888178  Uiso  ?  O
O1  1.0  0.5891144311695441  0.28929461789741223  0.5563965599375691  Uiso  ?  O
Ce1  1.0  0.49835364520185305  0.2851198919814454  0.5416389326022502  Uiso  ?  Ce
Ce1  1.0  0.5576230162138235  0.2746374725042726  0.5522531949859891  Uiso  ?  Ce
O1  1.0  0.5220422404877819  0.26033201016313673  0.5472615462724801  Uiso  ?  O
O1  1.0  0.5468578929783203  0.2580597402518713  0.586538697020931  Uiso  ?  O
O1  1.0  0.4907521810137864  0.2703276110975446  0.5733303921413633  Uiso  ?  O
O1  1.0  0.5122551135051109  0.2707131494186023  0.6084903943906054  Uiso  ?  O
O1  1.0  0.5307835520427651  0.3008904749225306  0.5455609142530672  Uiso  ?  O
O1  1.0  0.555571528664373  0.29634600442521647  0.5789756858386782  Uiso  ?  O
O1  1.0  0.49746938557196435  0.3085527836366789  0.5663418402803312  Uiso  ?  O
O1  1.0  0.5187265501415124  0.31217887709032544  0.6008687432316415  Uiso  ?  O
Ce1  1.0  0.4565271344613854  0.25746559745698494  0.5689270101170641  Uiso  ?  Ce
Ce1  1.0  0.4287884736979859  0.3072812112415168  0.5885927608576992  Uiso  ?  Ce
Ce1  1.0  0.4895562888370949  0.29504790041063716  0.6005264344056223  Uiso  ?  Ce
Ce1  1.0  0.4462818353136188  0.2649466396215163  0.6288541955583746  Uiso  ?  Ce
O1  1.0  0.4542893300062532  0.2821102799781526  0.5963084778793943  Uiso  ?  O
O1  1.0  0.4782210385923635  0.2804821370049881  0.6313048027009858  Uiso  ?  O
O1  1.0  0.41733863582188485  0.2910029931682247  0.6223006684098759  Uiso  ?  O
O1  1.0  0.4431853668240432  0.29166960518076795  0.654107732966616  Uiso  ?  O
O1  1.0  0.46174627155767695  0.3211648519899559  0.5894890382816166  Uiso  ?  O
O1  1.0  0.4856236577139038  0.32150375344943033  0.6257779844965407  Uiso  ?  O
O1  1.0  0.4279011295789568  0.3302040744018363  0.6171539162009606  Uiso  ?  O
O1  1.0  0.4536266631169634  0.3342562019231337  0.6492235330642534  Uiso  ?  O
Ce1  1.0  0.387988060823266  0.27667536134572296  0.6174879156631566  Uiso  ?  Ce
Ce1  1.0  0.361627523127612  0.32834574653299914  0.6354029857347584  Uiso  ?  Ce
Ce1  1.0  0.4212825408497031  0.3175329598703604  0.6449756039696048  Uiso  ?  Ce
Ce1  1.0  0.3765939489481664  0.2857011385282959  0.6766794479142265  Uiso  ?  Ce
O1  1.0  0.38950532439218766  0.30163956860604385  0.6423904662413562  Uiso  ?  O
O1  1.0  0.4102651522918074  0.30199974064919743  0.6754877241508478  Uiso  ?  O
O1  1.0  0.35454235970890874  0.3142497569027571  0.6654442181245405  Uiso  ?  O
O1  1.0  0.3791404366468962  0.3125768759240789  0.7024167960532788  Uiso  ?  O
Ce1  1.0  0.3180077473614907  0.3003345170710608  0.6637104637444816  Uiso  ?  Ce
Ce1  1.0  0.3086575903812108  0.3094469153466479  0.7222789019425234  Uiso  ?  Ce
O1  1.0  0.31835232038661293  0.3252723982417022  0.6888167662810631  Uiso  ?  O
O1  1.0  0.33937095911718523  0.3226865654967323  0.7235753525903261  Uiso  ?  O
Ce1  1.0  0.25053867596894325  0.3206643949656319  0.7124567140461977  Uiso  ?  Ce
Ce1  1.0  0.2418628558214062  0.3302093870763863  0.7688476775653503  Uiso  ?  Ce
O1  1.0  0.7756878642992763  0.26484473962217586  0.37382305680841177  Uiso  ?  O
Ce1  1.0  0.7433658964069058  0.24916917075795528  0.3696727260858237  Uiso  ?  Ce
Ce1  1.0  0.71782446732922  0.30045875146844114  0.3902069843978095  Uiso  ?  Ce
Ce1  1.0  0.7758677816439402  0.28876587369950785  0.4023300688755245  Uiso  ?  Ce
Ce1  1.0  0.7348377594205532  0.25873268371241015  0.4281797051746187  Uiso  ?  Ce
O1  1.0  0.7450596622591257  0.27818656435465805  0.398127371643712  Uiso  ?  O
O1  1.0  0.7672755811920718  0.2775801855033585  0.43454068082573244  Uiso  ?  O
O1  1.0  0.7100584694280991  0.2913352733702036  0.4234648297747448  Uiso  ?  O
O1  1.0  0.7334513118264565  0.28887076683717566  0.45873899458165734  Uiso  ?  O
O1  1.0  0.7521449392341919  0.31799519387459685  0.39395050635937356  Uiso  ?  O
O1  1.0  0.7763417103086409  0.31509589848966246  0.43230277253010296  Uiso  ?  O
O1  1.0  0.7207488595439753  0.32756989094004246  0.41496601092324276  Uiso  ?  O
O1  1.0  0.7434380671965719  0.3280296188701724  0.45561596264190013  Uiso  ?  O
Ce1  1.0  0.6735848752096424  0.26988911453773234  0.4200042746935009  Uiso  ?  Ce
Ce1  1.0  0.6504563436661958  0.3262302829641453  0.4390204006445627  Uiso  ?  Ce
Ce1  1.0  0.7117514636472758  0.3145951290788482  0.44902927267316284  Uiso  ?  Ce
Ce1  1.0  0.6676525947610041  0.2839938448144166  0.47719462717750927  Uiso  ?  Ce
O1  1.0  0.6750103584353235  0.2977365343400951  0.44582810983608223  Uiso  ?  O
O1  1.0  0.6976529695160518  0.2944571735651659  0.4807096023467074  Uiso  ?  O
O1  1.0  0.6433923442003973  0.3090595986075761  0.4676421111000577  Uiso  ?  O
O1  1.0  0.6681505901400984  0.30750303450184685  0.5036272614620954  Uiso  ?  O
Ce1  1.0  0.6082776714400194  0.29240834490343637  0.465471435447656  Uiso  ?  Ce
Ce1  1.0  0.5985591025518398  0.2994783700311659  0.523140295178471  Uiso  ?  Ce
O1  1.0  0.6114470738768144  0.3191394277619492  0.49399816296137594  Uiso  ?  O
O1  1.0  0.634640734561974  0.31772349878160044  0.5269578465325595  Uiso  ?  O
O1  1.0  0.579104715607855  0.3314970494362516  0.5169625278096798  Uiso  ?  O
O1  1.0  0.5998972891061534  0.32801056103129556  0.5526972447147672  Uiso  ?  O
Ce1  1.0  0.5402807812371161  0.31576175962970604  0.5133558524039797  Uiso  ?  Ce
Ce1  1.0  0.5336251386370789  0.32589408338078935  0.5707616575129523  Uiso  ?  Ce
Ce1  1.0  0.7626233764580159  0.3348213017262199  0.36255217466810297  Uiso  ?  Ce
O1  1.0  0.16754495237028433  0.25184173505714197  0.8890665704738022  Uiso  ?  O
O1  1.0  0.4264153716685564  0.2549852715890286  0.7181158907821582  Uiso  ?  O
O1  1.0  0.44936764864007284  0.2570930235736415  0.755144328896419  Uiso  ?  O
O1  1.0  0.3901520079068779  0.26921254994573307  0.7446230886514447  Uiso  ?  O
O1  1.0  0.4150440202852944  0.2724549521893268  0.7773875342085739  Uiso  ?  O
Ce1  1.0  0.3234099826893857  0.26610873001617363  0.7592517747229006  Uiso  ?  Ce
Ce1  1.0  0.37870004026739584  0.2533201261880659  0.7753815226889044  Uiso  ?  Ce
O1  1.0  0.3134520434422865  0.2504603252528311  0.7929840260343897  Uiso  ?  O
O1  1.0  0.35922814680682336  0.2796281314979648  0.7652469458676695  Uiso  ?  O
O1  1.0  0.3801177141384753  0.28035670223264786  0.8025342825443087  Uiso  ?  O
O1  1.0  0.3253382344841243  0.2958407635307938  0.7860772043806493  Uiso  ?  O
O1  1.0  0.3483937837768401  0.2906804898181763  0.8219397143965668  Uiso  ?  O
Ce1  1.0  0.25447231555337935  0.28888329319299777  0.8053918656801492  Uiso  ?  Ce
Ce1  1.0  0.311441768032358  0.27366362573168457  0.8219749394741904  Uiso  ?  Ce
O1  1.0  0.28219530890862116  0.2607841696635346  0.8160074929125306  Uiso  ?  O
O1  1.0  0.30619585081123823  0.2585557981702498  0.8528541703771754  Uiso  ?  O
O1  1.0  0.2475122117979551  0.27216570757701686  0.8405706238587478  Uiso  ?  O
O1  1.0  0.2711911342995676  0.2709423822457179  0.8761741903443352  Uiso  ?  O
O1  1.0  0.29095272369710007  0.30476524653749426  0.8132983746649278  Uiso  ?  O
O1  1.0  0.314503386687782  0.30187517400963176  0.8475723926265479  Uiso  ?  O
O1  1.0  0.2555516782036137  0.31353675908405054  0.8353741076312101  Uiso  ?  O
O1  1.0  0.27910608560705685  0.31441396714352116  0.8676503871428183  Uiso  ?  O
Ce1  1.0  0.21046805771785  0.25712279740195976  0.8368074152668248  Uiso  ?  Ce
Ce1  1.0  0.18829079400361148  0.30974530125826094  0.8529980989564413  Uiso  ?  Ce
Ce1  1.0  0.2466831678988663  0.29681345371694334  0.8645855219129142  Uiso  ?  Ce
O1  1.0  0.2099702358481658  0.2839135392195172  0.8648219375633945  Uiso  ?  O
O1  1.0  0.17863324746145953  0.291451991817682  0.8872694760112876  Uiso  ?  O
O1  1.0  0.22014490919288587  0.3280989211330467  0.8562134176746053  Uiso  ?  O
O1  1.0  0.7123743366071533  0.25399115774283976  0.5228205123796699  Uiso  ?  O
O1  1.0  0.7365678529630216  0.2537252755494028  0.5573029654148706  Uiso  ?  O
O1  1.0  0.6821089236987372  0.2654888287498382  0.5459411457501393  Uiso  ?  O
O1  1.0  0.704423381420199  0.2636070775196289  0.5794847674779307  Uiso  ?  O
Ce1  1.0  0.6110743143615927  0.26435482077466615  0.5645214746000362  Uiso  ?  Ce
O1  1.0  0.6451421199834768  0.2750408682190118  0.567211786746838  Uiso  ?  O
O1  1.0  0.6702217756774098  0.27664390449698695  0.6034947219704104  Uiso  ?  O
O1  1.0  0.6137576245238374  0.2883983403517889  0.5921326164928287  Uiso  ?  O
O1  1.0  0.6355733296619096  0.28620489043564823  0.6257382404972306  Uiso  ?  O
Ce1  1.0  0.5432364943026847  0.2838613772607986  0.6078779723106321  Uiso  ?  Ce
Ce1  1.0  0.6022634469747526  0.27176018967616655  0.6219199115067209  Uiso  ?  Ce
O1  1.0  0.5705343471620234  0.2559243345699744  0.62076255271008  Uiso  ?  O
O1  1.0  0.5923839076704308  0.25842366083303847  0.6541373199274991  Uiso  ?  O
O1  1.0  0.5379931152583657  0.27039599978261225  0.6433184172480749  Uiso  ?  O
O1  1.0  0.5636482912007343  0.2681532601847336  0.6787827473918746  Uiso  ?  O
O1  1.0  0.5785502992102806  0.2976214786121575  0.6143286534150072  Uiso  ?  O
O1  1.0  0.6038042568554987  0.293418863249861  0.6513471693656968  Uiso  ?  O
O1  1.0  0.5427508530973489  0.30812960482816554  0.6379728273609387  Uiso  ?  O
O1  1.0  0.5681425961502731  0.30799922535344654  0.6721247157582638  Uiso  ?  O
Ce1  1.0  0.5019372550583148  0.2537335762614604  0.6395641196694611  Uiso  ?  Ce
Ce1  1.0  0.47440375676705526  0.30371493770572594  0.6574299518810234  Uiso  ?  Ce
Ce1  1.0  0.5355255657701924  0.2909046778665513  0.6692489513334071  Uiso  ?  Ce
Ce1  1.0  0.49450974341374004  0.2625789825583444  0.6975703111497349  Uiso  ?  Ce
O1  1.0  0.502882351169052  0.27685298027493044  0.6670371500648299  Uiso  ?  O
O1  1.0  0.524536901907197  0.2753537670888923  0.7012467692393544  Uiso  ?  O
O1  1.0  0.46723577594473714  0.288952623217262  0.6910967701375333  Uiso  ?  O
O1  1.0  0.49235012028275726  0.287586375229945  0.7251637235770515  Uiso  ?  O
O1  1.0  0.5125899694686149  0.32108790993958014  0.6607633219556102  Uiso  ?  O
O1  1.0  0.5363872766245441  0.3185625725640546  0.6971399193940013  Uiso  ?  O
O1  1.0  0.47480924784813516  0.33032370168074443  0.6833993583177503  Uiso  ?  O
O1  1.0  0.5023589860003603  0.331577504362404  0.7196392613784441  Uiso  ?  O
Ce1  1.0  0.4336391367788134  0.27370878974783647  0.6868856475875394  Uiso  ?  Ce
Ce1  1.0  0.4093570674732592  0.3285517988956149  0.703047312067283  Uiso  ?  Ce
Ce1  1.0  0.46765246741831823  0.3157120009419444  0.7146989544304677  Uiso  ?  Ce
Ce1  1.0  0.42333835538476683  0.28290490770281607  0.7443200016069833  Uiso  ?  Ce
O1  1.0  0.43528860480002757  0.29974148893871194  0.7121031065844534  Uiso  ?  O
O1  1.0  0.4592501528060011  0.3009582370087948  0.7475674526255723  Uiso  ?  O
O1  1.0  0.40037621586992994  0.3116364901501014  0.7384874774185074  Uiso  ?  O
O1  1.0  0.4251482494089075  0.3092007760718288  0.7706558710661569  Uiso  ?  O
Ce1  1.0  0.366938534626415  0.29628405783220446  0.7307138624024758  Uiso  ?  Ce
Ce1  1.0  0.3576852439185714  0.3060932890283797  0.790183242948951  Uiso  ?  Ce
O1  1.0  0.3686765338052354  0.32377214721300873  0.7599218031883861  Uiso  ?  O
O1  1.0  0.3906703975181907  0.32093801102180397  0.7964564649356515  Uiso  ?  O
O1  1.0  0.33385487789307783  0.3332854902809263  0.7808634616436086  Uiso  ?  O
O1  1.0  0.3555849601511665  0.32936326280782063  0.8178234079889714  Uiso  ?  O
Ce1  1.0  0.29851212629390733  0.32052419109432173  0.7755585300236557  Uiso  ?  Ce
Ce1  1.0  0.2910335172090639  0.3287808535391143  0.8380807935949176  Uiso  ?  Ce
Ce1  1.0  0.7661008815011366  0.30264092477858623  0.46061597852816016  Uiso  ?  Ce
O1  1.0  0.7561256006347759  0.28479149704768864  0.4921760664947284  Uiso  ?  O
O1  1.0  0.769995171694327  0.32574532801203865  0.48454424596410495  Uiso  ?  O
Ce1  1.0  0.7238817292167057  0.2688649984965664  0.4902986987854931  Uiso  ?  Ce
Ce1  1.0  0.6980235429573995  0.3237808100377763  0.5085469099573752  Uiso  ?  Ce
Ce1  1.0  0.7563846504721305  0.3105719229194899  0.5188134684660078  Uiso  ?  Ce
Ce1  1.0  0.7140200460689529  0.2838822490460141  0.548443330983015  Uiso  ?  Ce
O1  1.0  0.7206015662936178  0.29842737920786155  0.515582949448391  Uiso  ?  O
O1  1.0  0.7484657542092437  0.2926375249383344  0.5512402517109456  Uiso  ?  O
O1  1.0  0.6871211606567378  0.3062684884649755  0.5403303023972927  Uiso  ?  O
O1  1.0  0.7149380732775434  0.3061533872688601  0.5760996639747982  Uiso  ?  O
Ce1  1.0  0.659548674527828  0.2881427222623898  0.5363806890587296  Uiso  ?  Ce
Ce1  1.0  0.6909246633803517  0.33282397396716645  0.5668288417042001  Uiso  ?  Ce
Ce1  1.0  0.6460023384564584  0.3030029318828789  0.5919244560115186  Uiso  ?  Ce
O1  1.0  0.6552473750352544  0.3177054842009443  0.562855972765828  Uiso  ?  O
O1  1.0  0.6799231736141479  0.3171005099990704  0.5994918741060522  Uiso  ?  O
O1  1.0  0.6199197437102245  0.33076251838284026  0.5857681828542162  Uiso  ?  O
O1  1.0  0.6401881375592309  0.3286189959111714  0.6246353142510527  Uiso  ?  O
Ce1  1.0  0.5909453005513081  0.31460910152490673  0.5821977092099827  Uiso  ?  Ce
Ce1  1.0  0.5796128869348595  0.3262789851608096  0.6409143335659281  Uiso  ?  Ce
O1  1.0  0.4714388133068294  0.2563209081336443  0.7879997575156277  Uiso  ?  O
O1  1.0  0.4965006477257372  0.2535262408901627  0.8235162710782951  Uiso  ?  O
O1  1.0  0.4409784891099482  0.2689751757029988  0.8129046880559986  Uiso  ?  O
O1  1.0  0.4638856449252097  0.2695166463616773  0.8462166281415827  Uiso  ?  O
Ce1  1.0  0.37064484285314936  0.2658559276080935  0.8324777243529426  Uiso  ?  Ce
Ce1  1.0  0.42989808991829637  0.2534653142436382  0.843858508959251  Uiso  ?  Ce
O1  1.0  0.4027609340998855  0.2772575229109297  0.8345583713086469  Uiso  ?  O
O1  1.0  0.4301735047678451  0.27823112549624734  0.8719970328198754  Uiso  ?  O
O1  1.0  0.37050993452300385  0.28594464589782936  0.8615784382842466  Uiso  ?  O
Ce1  1.0  0.30298578949734417  0.2873962413595714  0.8746686986592803  Uiso  ?  Ce
Ce1  1.0  0.3602497983914229  0.27283427216537537  0.890795287277388  Uiso  ?  Ce
O1  1.0  0.3284613966082898  0.25630121502214254  0.88699458941148  Uiso  ?  O
O1  1.0  0.3378524953140202  0.30058230783184264  0.8806264859101691  Uiso  ?  O
O1  1.0  0.7621742007319728  0.25425091969704783  0.5885599329102807  Uiso  ?  O
O1  1.0  0.7247735085265863  0.26547970074694144  0.6153361219960396  Uiso  ?  O
O1  1.0  0.7553322530037077  0.25989814884246065  0.6489623523496777  Uiso  ?  O
Ce1  1.0  0.6601809165569729  0.26190454943973446  0.6349707089218137  Uiso  ?  Ce
O1  1.0  0.6956528522165927  0.2733282556781965  0.639594329239856  Uiso  ?  O
O1  1.0  0.7163470899739397  0.27231063808205064  0.6727285415419758  Uiso  ?  O
O1  1.0  0.6605916270477923  0.28644117235976124  0.6600714809264447  Uiso  ?  O
O1  1.0  0.6859658682683295  0.282545284523829  0.698180935262111  Uiso  ?  O
Ce1  1.0  0.5919154523229974  0.2819159562744372  0.6815027250531018  Uiso  ?  Ce
Ce1  1.0  0.6504311750431379  0.2685585058634267  0.6971768441829327  Uiso  ?  Ce
O1  1.0  0.6200946414691529  0.25509194215707093  0.6934528520091916  Uiso  ?  O
O1  1.0  0.6428421760763791  0.25289773919963404  0.7230581540900446  Uiso  ?  O
O1  1.0  0.5843517934690814  0.2649639376490621  0.713287130207541  Uiso  ?  O
O1  1.0  0.6065381717621594  0.26454306316808524  0.7485338191124036  Uiso  ?  O
O1  1.0  0.6275623941672489  0.29500306521233577  0.6858633634409479  Uiso  ?  O
O1  1.0  0.6479033052837451  0.2939528264083539  0.7222566358576731  Uiso  ?  O
O1  1.0  0.5937999058066102  0.305804595546107  0.7076504554255378  Uiso  ?  O
O1  1.0  0.6125800385028933  0.3063289807627664  0.7431238745800731  Uiso  ?  O
Ce1  1.0  0.5479899384951531  0.25097199190187414  0.7109089050133213  Uiso  ?  Ce
Ce1  1.0  0.5260551632218845  0.3029779820075189  0.7265611343370042  Uiso  ?  Ce
Ce1  1.0  0.5820688872781223  0.2922981127799403  0.7370770675541294  Uiso  ?  Ce
Ce1  1.0  0.540900259639415  0.2592657707243564  0.7710070627315992  Uiso  ?  Ce
O1  1.0  0.5483051657266889  0.2779568048152693  0.7362039668779712  Uiso  ?  O
O1  1.0  0.5759443127392401  0.2724003720339584  0.773699476035921  Uiso  ?  O
O1  1.0  0.5128778231380149  0.28669958916200244  0.762058567774333  Uiso  ?  O
O1  1.0  0.5398994266045379  0.2868141371852169  0.7946598596682733  Uiso  ?  O
O1  1.0  0.5607445636838204  0.3173620693776463  0.7309909323758508  Uiso  ?  O
O1  1.0  0.582975726304401  0.3148793931824949  0.7674979677695637  Uiso  ?  O
O1  1.0  0.5246300060513991  0.3289748058063689  0.7553932412073918  Uiso  ?  O
O1  1.0  0.5483249313691125  0.3250134093313906  0.7888574261448534  Uiso  ?  O
Ce1  1.0  0.48308518257969424  0.2690835111057057  0.7579343343626621  Uiso  ?  Ce
Ce1  1.0  0.4589606731845711  0.3246098109598346  0.7755522945740156  Uiso  ?  Ce
Ce1  1.0  0.5173121770248552  0.3139441685551341  0.7860290858658584  Uiso  ?  Ce
Ce1  1.0  0.47197230033528464  0.28177325375012013  0.8163197458316623  Uiso  ?  Ce
O1  1.0  0.4850533569168427  0.29571056995608713  0.7845805044587212  Uiso  ?  O
O1  1.0  0.5056389394870942  0.2941203151241995  0.8186481717201706  Uiso  ?  O
O1  1.0  0.44830188807605265  0.3108099104302661  0.8056365827194061  Uiso  ?  O
O1  1.0  0.4731874324564536  0.3084146383701133  0.8380148074162503  Uiso  ?  O
Ce1  1.0  0.41348754711476177  0.29236623884537494  0.8028614488665521  Uiso  ?  Ce
Ce1  1.0  0.40504205555024514  0.30155055773242606  0.8607121211147924  Uiso  ?  Ce
O1  1.0  0.41661414388955637  0.3196194948715192  0.8297236789189906  Uiso  ?  O
O1  1.0  0.43846415170014125  0.3196827566233485  0.8658402287537708  Uiso  ?  O
O1  1.0  0.38107236821628526  0.3285555955148462  0.8504819371632757  Uiso  ?  O
O1  1.0  0.4038662715158969  0.32997400400374965  0.8906349090239625  Uiso  ?  O
Ce1  1.0  0.34869254049595516  0.3170453680384073  0.8493037511162473  Uiso  ?  Ce
Ce1  1.0  0.7721017926265792  0.26619634544641474  0.5613707364956234  Uiso  ?  Ce
Ce1  1.0  0.7462530639208207  0.32052410882545596  0.5777432468938657  Uiso  ?  Ce
Ce1  1.0  0.7596547134515689  0.2780979386517513  0.6184170363862309  Uiso  ?  Ce
O1  1.0  0.7711465818719863  0.29130835840378455  0.5874558404171409  Uiso  ?  O
O1  1.0  0.7370858917997354  0.3029361869127837  0.614186638539229  Uiso  ?  O
O1  1.0  0.7611303567549585  0.3058123466172493  0.646450867051799  Uiso  ?  O
Ce1  1.0  0.6993898890598924  0.28711069808555156  0.6043983051244696  Uiso  ?  Ce
Ce1  1.0  0.736718336611585  0.3280183152334831  0.6338916972092293  Uiso  ?  Ce
Ce1  1.0  0.693958723285017  0.2982816995095229  0.6640545030305882  Uiso  ?  Ce
O1  1.0  0.7049833904056311  0.31590883425918204  0.6314737436931785  Uiso  ?  O
O1  1.0  0.7275138878834031  0.31077601718354475  0.670124992279832  Uiso  ?  O
O1  1.0  0.6691163875494283  0.32666748142570096  0.6568279429521978  Uiso  ?  O
O1  1.0  0.6952510326040412  0.3267144916885176  0.6913663216770765  Uiso  ?  O
Ce1  1.0  0.6344118103870156  0.31316978279177615  0.6502623413152941  Uiso  ?  Ce
Ce1  1.0  0.627851723801073  0.3199282879057992  0.7093003357078324  Uiso  ?  Ce
Ce1  1.0  0.5691914230862665  0.33114422084127176  0.7000763512897276  Uiso  ?  Ce
O1  1.0  0.5183202563066782  0.25323303307329104  0.8580858939471565  Uiso  ?  O
O1  1.0  0.48891385791217634  0.26674830202338407  0.880100773895001  Uiso  ?  O
O1  1.0  0.7766059968217791  0.26087303567036985  0.6828133854227124  Uiso  ?  O
Ce1  1.0  0.7077678312271758  0.255168694750421  0.7010975496820504  Uiso  ?  Ce
O1  1.0  0.740279712515377  0.2736471825616433  0.7092177223299292  Uiso  ?  O
O1  1.0  0.7080825727252855  0.28208077409728216  0.7305058762807894  Uiso  ?  O
Ce1  1.0  0.641011957008644  0.27702936247688614  0.7530962029558077  Uiso  ?  Ce
Ce1  1.0  0.6973969019030196  0.26789280437085566  0.7639150350594113  Uiso  ?  Ce
O1  1.0  0.6628250480588354  0.2538308494658726  0.7608156011183472  Uiso  ?  O
O1  1.0  0.6886663388594415  0.25135381485762087  0.7948268282519676  Uiso  ?  O
O1  1.0  0.6287001289177043  0.2629326103963875  0.7835246227554984  Uiso  ?  O
O1  1.0  0.6534322487095546  0.2630725070825024  0.8170095876099643  Uiso  ?  O
O1  1.0  0.6731047370979099  0.2946016395321782  0.7536134722515606  Uiso  ?  O
O1  1.0  0.6409720511030612  0.30590242311506155  0.7807163745354071  Uiso  ?  O
Ce1  1.0  0.5711751563163094  0.3020534436516943  0.7992683908143399  Uiso  ?  Ce
Ce1  1.0  0.6302927645428046  0.2863958053715041  0.80946553134064  Uiso  ?  Ce
Ce1  1.0  0.5887548020057978  0.25608202776945344  0.8397683971813839  Uiso  ?  Ce
O1  1.0  0.5986445458265027  0.27407436741960195  0.8068836503553366  Uiso  ?  O
O1  1.0  0.6229625046814989  0.2714963446537199  0.8407070817129528  Uiso  ?  O
O1  1.0  0.5638825947759447  0.2873831260396923  0.8301636877627384  Uiso  ?  O
O1  1.0  0.6076572873838012  0.31378717981289983  0.803488019122311  Uiso  ?  O
O1  1.0  0.5738916162481492  0.3246361663694408  0.8249063495727084  Uiso  ?  O
Ce1  1.0  0.5285850850909177  0.2690976635322697  0.828640339339804  Uiso  ?  Ce
Ce1  1.0  0.5062601606867435  0.31992720819464654  0.8469357399353633  Uiso  ?  Ce
Ce1  1.0  0.563517206131929  0.31079484142335057  0.8546828146066674  Uiso  ?  Ce
Ce1  1.0  0.5195926596598185  0.28227897017946196  0.8836444635701095  Uiso  ?  Ce
O1  1.0  0.5288131127957744  0.29383733282689917  0.8514083688521585  Uiso  ?  O
O1  1.0  0.4944308652896062  0.30815856602230207  0.8734020049113008  Uiso  ?  O
Ce1  1.0  0.46094120522178844  0.29152054255724247  0.8755520134960241  Uiso  ?  Ce
Ce1  1.0  0.7525079107214695  0.285917160279878  0.6747429755817885  Uiso  ?  Ce
O1  1.0  0.7490288641281466  0.3138422830980042  0.7002974302642168  Uiso  ?  O
O1  1.0  0.7168184496256249  0.3262945997756771  0.7288226539081  Uiso  ?  O
Ce1  1.0  0.685067878047978  0.30888641957378615  0.7251049672511681  Uiso  ?  Ce
Ce1  1.0  0.6174996626956321  0.3298504831757314  0.7704626293120843  Uiso  ?  Ce
O1  1.0  0.15932473763043678  0.20446713423412616  0.1291438535620677  Uiso  ?  O
O1  1.0  0.16358248446025594  0.1710833225127752  0.2246024929337268  Uiso  ?  O
O1  1.0  0.3071080783994048  0.17158474040879804  0.12549714447372604  Uiso  ?  O
O1  1.0  0.27343005368777884  0.17941664731911117  0.15133250843206753  Uiso  ?  O
O1  1.0  0.28312949189036346  0.2204026326119218  0.14757207777605835  Uiso  ?  O
Ce1  1.0  0.1952377552133313  0.21535729040378332  0.13174402494166743  Uiso  ?  Ce
Ce1  1.0  0.25222337564768993  0.2036483609970291  0.14280334415842422  Uiso  ?  Ce
Ce1  1.0  0.2043306497936302  0.17716477721204466  0.17005490868492368  Uiso  ?  Ce
O1  1.0  0.2178205483682149  0.18992418265475292  0.13867554650167102  Uiso  ?  O
O1  1.0  0.2382433489876903  0.1900380775230749  0.17396250044664668  Uiso  ?  O
O1  1.0  0.183806146011444  0.203317305203418  0.16129244528315725  Uiso  ?  O
O1  1.0  0.2055936504533724  0.20346519184509518  0.1988665253879542  Uiso  ?  O
O1  1.0  0.2280701477022081  0.23265732603656436  0.13292918026207995  Uiso  ?  O
O1  1.0  0.25031751064771485  0.23202817091264494  0.1691226094170683  Uiso  ?  O
O1  1.0  0.19236751365399876  0.24455988798372916  0.1574180490442633  Uiso  ?  O
O1  1.0  0.22037126299774834  0.24166835611110318  0.19085695559739027  Uiso  ?  O
Ce1  1.0  0.18066731842138173  0.22680580315267704  0.18884462768114102  Uiso  ?  Ce
O1  1.0  0.17122184552088524  0.2132902418272792  0.22044506536204256  Uiso  ?  O
O1  1.0  0.1863692407092516  0.1703233141981885  0.2600363364737068  Uiso  ?  O
O1  1.0  0.20962517468466765  0.16930833438617557  0.2970695541003683  Uiso  ?  O
O1  1.0  0.17330040633444382  0.17968422035283732  0.3227352011886696  Uiso  ?  O
O1  1.0  0.4312745024278152  0.18664197214780803  0.14722215052038415  Uiso  ?  O
O1  1.0  0.3752951551294098  0.19623694489263552  0.13530466677921785  Uiso  ?  O
O1  1.0  0.397567433470455  0.1966531331242112  0.16823749172309882  Uiso  ?  O
Ce1  1.0  0.30975584691968255  0.19595983065278091  0.15500017916780043  Uiso  ?  Ce
Ce1  1.0  0.3628894137082086  0.1828313227278238  0.16564555127480196  Uiso  ?  Ce
O1  1.0  0.3301525014473408  0.16823203977564447  0.16499420768702983  Uiso  ?  O
O1  1.0  0.297882187652163  0.1780164983050788  0.18863096863464257  Uiso  ?  O
O1  1.0  0.3217427921552142  0.17693031057565003  0.22095515528218682  Uiso  ?  O
O1  1.0  0.3415799704746469  0.20554209319182337  0.1567316842994894  Uiso  ?  O
O1  1.0  0.3649709706919118  0.20779712278891577  0.19157147268947275  Uiso  ?  O
O1  1.0  0.31096296093759596  0.22138491377407066  0.1803137316253865  Uiso  ?  O
O1  1.0  0.3329224492938104  0.2178554919608056  0.21598896437062473  Uiso  ?  O
Ce1  1.0  0.23769318825570313  0.21090282741725838  0.19777355564662083  Uiso  ?  Ce
Ce1  1.0  0.2962053285848979  0.20197105920911743  0.2146881648562598  Uiso  ?  Ce
Ce1  1.0  0.25376624900455924  0.1744425902744767  0.2427800237607994  Uiso  ?  Ce
O1  1.0  0.26394353811807353  0.1898715983387223  0.20937841015821151  Uiso  ?  O
O1  1.0  0.2863431310534969  0.18684512385092414  0.24281149925469273  Uiso  ?  O
O1  1.0  0.23067884103030314  0.2007791653858194  0.23700552569178013  Uiso  ?  O
O1  1.0  0.2519877486551548  0.20260965232624167  0.26474676587715784  Uiso  ?  O
O1  1.0  0.2720025845071579  0.2304050297995814  0.20400651904623168  Uiso  ?  O
O1  1.0  0.29775634839812753  0.2288678177065493  0.2381656256802498  Uiso  ?  O
O1  1.0  0.23960412738059159  0.24325254665444693  0.22682140150675936  Uiso  ?  O
O1  1.0  0.2611885967015226  0.2410544845039404  0.26095453040928956  Uiso  ?  O
Ce1  1.0  0.195076149186147  0.18518683632120478  0.22943302811448507  Uiso  ?  Ce
Ce1  1.0  0.17012286108722102  0.2352262387469923  0.2481958027951338  Uiso  ?  Ce
Ce1  1.0  0.22944540909247843  0.22537058778821883  0.25878170119275073  Uiso  ?  Ce
Ce1  1.0  0.18647173289470803  0.193299339761973  0.2868440991385543  Uiso  ?  Ce
O1  1.0  0.19590163694049426  0.21112578855350364  0.2524869622833105  Uiso  ?  O
O1  1.0  0.22080801795505656  0.20816717366297985  0.29343631933549924  Uiso  ?  O
O1  1.0  0.161207310924199  0.22119615354870956  0.28162692865725797  Uiso  ?  O
O1  1.0  0.1872648001882328  0.2177648611911237  0.3130090093290327  Uiso  ?  O
Ce1  1.0  0.1621990940227448  0.2460546975060039  0.305505067590334  Uiso  ?  Ce
Ce1  1.0  0.40803797797356106  0.20948481473081196  0.13683591402692835  Uiso  ?  Ce
O1  1.0  0.4400923998180308  0.2254379046517647  0.14054409757169659  Uiso  ?  O
O1  1.0  0.38645464887664505  0.23842170298805357  0.12885829373808858  Uiso  ?  O
O1  1.0  0.408372345994945  0.23885220692235556  0.1630453650243646  Uiso  ?  O
Ce1  1.0  0.3494696497564782  0.22200844390387486  0.1287444341322277  Uiso  ?  Ce
Ce1  1.0  0.33961669168549596  0.23619861659095642  0.1839934331272021  Uiso  ?  Ce
O1  1.0  0.35091730391750214  0.25342897841067746  0.15441403324887532  Uiso  ?  O
O1  1.0  0.3750706608461472  0.2474703994054184  0.1871162046913875  Uiso  ?  O
Ce1  1.0  0.28227830804669174  0.24631779048132374  0.17428751303196863  Uiso  ?  Ce
O1  1.0  0.23460835902523203  0.16757901357577973  0.3314979722124835  Uiso  ?  O
O1  1.0  0.20092636167681305  0.17849060911773182  0.35621056938651857  Uiso  ?  O
O1  1.0  0.22506210936785367  0.17593685892480074  0.39061868703591895  Uiso  ?  O
O1  1.0  0.16702343288537166  0.18705891822889784  0.3774833527136233  Uiso  ?  O
O1  1.0  0.19030637233152706  0.1867459558105452  0.41200583341225094  Uiso  ?  O
O1  1.0  0.158518111585506  0.19797285265013623  0.4342371822384142  Uiso  ?  O
O1  1.0  0.4890252101306402  0.17264131437853222  0.15756844487025812  Uiso  ?  O
O1  1.0  0.5106567634028635  0.17180906476188337  0.19682232002808836  Uiso  ?  O
Ce1  1.0  0.422846595767483  0.17006467815095652  0.1750437455738003  Uiso  ?  Ce
O1  1.0  0.4548696450961769  0.18169708488426162  0.18034772925262085  Uiso  ?  O
O1  1.0  0.4804821680236703  0.1863211905035813  0.21583088168868325  Uiso  ?  O
O1  1.0  0.4222179920085308  0.19252965455259277  0.20329545932167747  Uiso  ?  O
O1  1.0  0.4469936542916921  0.19628703972063005  0.24150743045961587  Uiso  ?  O
Ce1  1.0  0.35655243733970116  0.19119534355457868  0.22343850543712954  Uiso  ?  Ce
Ce1  1.0  0.41322389707626944  0.17996160018858748  0.2341820660294485  Uiso  ?  Ce
O1  1.0  0.3455880821514841  0.17666136405161006  0.2580076889921206  Uiso  ?  O
O1  1.0  0.3678772379753508  0.17605691187858002  0.2902903664283401  Uiso  ?  O
O1  1.0  0.3869692342694971  0.2069450710330426  0.22785500717672044  Uiso  ?  O
O1  1.0  0.4126764913511729  0.20470499699497896  0.2609470716166853  Uiso  ?  O
O1  1.0  0.3542458149566903  0.21843323644289017  0.2523507978669716  Uiso  ?  O
O1  1.0  0.3803162319225265  0.2155720117230354  0.28963120270344944  Uiso  ?  O
Ce1  1.0  0.28746229201067247  0.21295063894707167  0.27232092102473615  Uiso  ?  Ce
Ce1  1.0  0.3451307854040306  0.20124015088950797  0.2821012465427598  Uiso  ?  Ce
Ce1  1.0  0.30040175917129813  0.17036781782713814  0.3087230398521112  Uiso  ?  Ce
O1  1.0  0.31201921144442135  0.18631619420692683  0.27829399291787565  Uiso  ?  O
O1  1.0  0.33610981540224794  0.18700495823096522  0.3123312948807217  Uiso  ?  O
O1  1.0  0.2776633682958937  0.19817688197015393  0.30133917711574815  Uiso  ?  O
O1  1.0  0.30244940527693215  0.19515355653777597  0.3353972699783005  Uiso  ?  O
O1  1.0  0.322621041507627  0.22819745221984541  0.2743197579732222  Uiso  ?  O
O1  1.0  0.34619646656103265  0.22370439626824734  0.30943705145489436  Uiso  ?  O
O1  1.0  0.284756888559724  0.23798821112968915  0.2995479464006229  Uiso  ?  O
O1  1.0  0.3090729149303749  0.23776151890961136  0.3311596277938964  Uiso  ?  O
Ce1  1.0  0.24482515634492272  0.18477413957157662  0.2965279545998187  Uiso  ?  Ce
Ce1  1.0  0.22083726678604337  0.2351702058627887  0.31624618505118696  Uiso  ?  Ce
Ce1  1.0  0.2779585396366075  0.22458577710452102  0.3295972804942648  Uiso  ?  Ce
Ce1  1.0  0.23750975572462205  0.19292677602460162  0.3577801253516442  Uiso  ?  Ce
O1  1.0  0.24340638724578031  0.20936465213685496  0.32479289373599424  Uiso  ?  O
O1  1.0  0.26676859605300834  0.20936857738033676  0.360429915211667  Uiso  ?  O
O1  1.0  0.20972838208442893  0.21963332024495094  0.3510974194029731  Uiso  ?  O
O1  1.0  0.23392859766785007  0.21838821055596977  0.385136738284248  Uiso  ?  O
O1  1.0  0.25258827815070245  0.2508831027105935  0.32201755719807706  Uiso  ?  O
O1  1.0  0.2795663929472896  0.24801937515425362  0.3573430430157066  Uiso  ?  O
Ce1  1.0  0.1792716204317088  0.205386582298765  0.3511564180974085  Uiso  ?  Ce
Ce1  1.0  0.21028911844534504  0.24490408794100546  0.37756622062095674  Uiso  ?  Ce
Ce1  1.0  0.17069649757303806  0.2169137592960407  0.40347721776704654  Uiso  ?  Ce
O1  1.0  0.1760823167234554  0.2288327798396959  0.37162603955324325  Uiso  ?  O
O1  1.0  0.20076916256112382  0.22951117132583643  0.4072030579130233  Uiso  ?  O
O1  1.0  0.16600569975164015  0.2409402728550288  0.4316154710387763  Uiso  ?  O
O1  1.0  0.5909447349043192  0.19266100906162645  0.14171319033549887  Uiso  ?  O
O1  1.0  0.6016781152994007  0.2318779313804281  0.13540362021848124  Uiso  ?  O
Ce1  1.0  0.5660629907411685  0.2144251930109563  0.13634244777428703  Uiso  ?  Ce
Ce1  1.0  0.5215350800148449  0.1883179517531013  0.15890838979364974  Uiso  ?  Ce
O1  1.0  0.5339241170464392  0.20143672433193446  0.1301578857770141  Uiso  ?  O
O1  1.0  0.5551020367899727  0.20108302591968077  0.16492184409439042  Uiso  ?  O
O1  1.0  0.5009090352163382  0.21544143427241158  0.1516402658047361  Uiso  ?  O
O1  1.0  0.5253408428212578  0.21530778155527164  0.19110331055020668  Uiso  ?  O
O1  1.0  0.5663831716746339  0.2461905708289709  0.15703246055682574  Uiso  ?  O
Ce1  1.0  0.4657839843292992  0.1992917454745928  0.15024716555408582  Uiso  ?  Ce
Ce1  1.0  0.5011038864578996  0.23768311985465393  0.17833389297139884  Uiso  ?  Ce
Ce1  1.0  0.4583407352356842  0.21004824496086755  0.2073654925753666  Uiso  ?  Ce
O1  1.0  0.46731683201380536  0.22816705425699996  0.17505105754128633  Uiso  ?  O
O1  1.0  0.4911887940693237  0.22424452073678824  0.21071744521236419  Uiso  ?  O
O1  1.0  0.4334323168731255  0.2365079533887038  0.20056637561089719  Uiso  ?  O
O1  1.0  0.4564488082669866  0.23438364187858898  0.23229705047068452  Uiso  ?  O
Ce1  1.0  0.3997357003587276  0.22033060811234698  0.19779909597589204  Uiso  ?  Ce
Ce1  1.0  0.38752281449521775  0.23238144358192023  0.25488185978752087  Uiso  ?  Ce
O1  1.0  0.4002634249464034  0.24673387138184708  0.22428925841780398  Uiso  ?  O
O1  1.0  0.42263104117725453  0.24665380486004898  0.255869454696098  Uiso  ?  O
Ce1  1.0  0.3319550931194193  0.24268776025631322  0.24219988093712047  Uiso  ?  Ce
O1  1.0  0.24828637393976352  0.17486150508050127  0.42522500552116804  Uiso  ?  O
O1  1.0  0.27421097271838046  0.17426687455978948  0.46031748182216686  Uiso  ?  O
Ce1  1.0  0.18107827952734964  0.1727069675170441  0.4443388663515059  Uiso  ?  Ce
O1  1.0  0.21490144826402519  0.18438838389339848  0.4479329615665393  Uiso  ?  O
O1  1.0  0.2407113293043389  0.18677874495917757  0.481294933340107  Uiso  ?  O
O1  1.0  0.18024170214093302  0.19835175950761114  0.4720354562569971  Uiso  ?  O
O1  1.0  0.2057601315845925  0.19618074247545378  0.5046849493936444  Uiso  ?  O
Ce1  1.0  0.17096036384943605  0.18164157448975124  0.5015848810812035  Uiso  ?  Ce
O1  1.0  0.1721512058887217  0.2049430881958622  0.5321999785218102  Uiso  ?  O
O1  1.0  0.5388296300147456  0.17291760155503622  0.2256428057017761  Uiso  ?  O
O1  1.0  0.5602889408119585  0.17072931029342395  0.26459743268773106  Uiso  ?  O
Ce1  1.0  0.4730468012810808  0.1682076412956978  0.2467396423381022  Uiso  ?  Ce
O1  1.0  0.5032369727185614  0.18530850439314697  0.24990138532300804  Uiso  ?  O
O1  1.0  0.5265690258412338  0.18072827985708242  0.28523549679967786  Uiso  ?  O
O1  1.0  0.4700119234915661  0.1906348193880704  0.274279690104799  Uiso  ?  O
O1  1.0  0.4939266183390059  0.19375536745814176  0.30650292258510126  Uiso  ?  O
Ce1  1.0  0.4040852543868095  0.18827073459617988  0.2960810333467845  Uiso  ?  Ce
Ce1  1.0  0.4601004176545623  0.178618098430135  0.3065769045187311  Uiso  ?  Ce
O1  1.0  0.39313698114760137  0.17338839212762916  0.3270858598666028  Uiso  ?  O
O1  1.0  0.41667228533145156  0.17414992763793846  0.3596779024527355  Uiso  ?  O
O1  1.0  0.43451893146113774  0.20169323998608052  0.29460697648129686  Uiso  ?  O
O1  1.0  0.45985004587465234  0.2017286425680135  0.3317026971253121  Uiso  ?  O
O1  1.0  0.4032094259849245  0.21521100494738696  0.32079373453335897  Uiso  ?  O
O1  1.0  0.4250320280129838  0.21078806248760532  0.3556857145277119  Uiso  ?  O
Ce1  1.0  0.33546460404790024  0.21155598883899016  0.33957286893103517  Uiso  ?  Ce
Ce1  1.0  0.3962328788167575  0.20133480674843438  0.3523793339593671  Uiso  ?  Ce
Ce1  1.0  0.35141477133841814  0.16957845469796984  0.38209999633454456  Uiso  ?  Ce
O1  1.0  0.3581842582387086  0.1811856267981164  0.3476116513873744  Uiso  ?  O
O1  1.0  0.38244058775370193  0.1821560287362276  0.3834841948046324  Uiso  ?  O
O1  1.0  0.3253855051141716  0.19670383487388252  0.3722361420631526  Uiso  ?  O
O1  1.0  0.3518846793318722  0.19509641933827115  0.4087210980521374  Uiso  ?  O
O1  1.0  0.3734457771925364  0.22741159889034268  0.3445387140619198  Uiso  ?  O
O1  1.0  0.3928767503342534  0.2231967110266393  0.37666807579831546  Uiso  ?  O
O1  1.0  0.33571968452747913  0.2356298640236809  0.36731084337430436  Uiso  ?  O
O1  1.0  0.3596761239256414  0.23357769321638905  0.402408091827107  Uiso  ?  O
Ce1  1.0  0.29173992593758563  0.18103957928491013  0.368542943248168  Uiso  ?  Ce
Ce1  1.0  0.2663463604468896  0.23162258984345763  0.38651433795883616  Uiso  ?  Ce
Ce1  1.0  0.32278424599930766  0.22087773935438193  0.4013575626059278  Uiso  ?  Ce
Ce1  1.0  0.28360285693928583  0.18967921416795516  0.4261804417709173  Uiso  ?  Ce
O1  1.0  0.28806018233035585  0.20753504961329616  0.39620821331425954  Uiso  ?  O
O1  1.0  0.31753669095768666  0.20551547492582578  0.4286576080254078  Uiso  ?  O
O1  1.0  0.2592052911665622  0.21625937557080097  0.4192855272194534  Uiso  ?  O
O1  1.0  0.2826464982851285  0.21561862069526386  0.4537675427747125  Uiso  ?  O
O1  1.0  0.299930650360678  0.24752573463645322  0.3902411148599822  Uiso  ?  O
O1  1.0  0.32408711586332883  0.24618340090950128  0.42286344766463846  Uiso  ?  O
Ce1  1.0  0.22688391328783541  0.2039152508005578  0.41579008067474077  Uiso  ?  Ce
Ce1  1.0  0.2587324913580613  0.24117225273779033  0.44657322509970165  Uiso  ?  Ce
Ce1  1.0  0.2185776293680384  0.21000285354034123  0.4719382477523645  Uiso  ?  Ce
O1  1.0  0.2223727104865222  0.2281739896528116  0.4437137606504604  Uiso  ?  O
O1  1.0  0.24832931551318377  0.2236301255303009  0.47718976948475983  Uiso  ?  O
O1  1.0  0.19107808204130364  0.24129872697828078  0.46299857923980275  Uiso  ?  O
O1  1.0  0.21304338185226349  0.23598498988179775  0.4993069393592792  Uiso  ?  O
Ce1  1.0  0.15787644229140316  0.2238509030506104  0.4639982283937022  Uiso  ?  Ce
O1  1.0  0.18007894232667812  0.24695953227450596  0.5268734978443997  Uiso  ?  O
O1  1.0  0.6820780626214182  0.1675749944109953  0.1271401096545324  Uiso  ?  O
O1  1.0  0.7059529015217185  0.16937842145471307  0.16348340511443882  Uiso  ?  O
O1  1.0  0.7513221716944836  0.19901506031435925  0.13167783232966848  Uiso  ?  O
O1  1.0  0.716857171579963  0.2129968107862958  0.15744045810628754  Uiso  ?  O
Ce1  1.0  0.6255202568963778  0.20743485613365334  0.14481475145917533  Uiso  ?  Ce
Ce1  1.0  0.6809658756928162  0.19366923418653315  0.1552014492066737  Uiso  ?  Ce
O1  1.0  0.6484237920739319  0.18298277788551157  0.15251255240569517  Uiso  ?  O
O1  1.0  0.6722487124084754  0.1792539631120143  0.18833284939954517  Uiso  ?  O
O1  1.0  0.612019017368098  0.1881492464623177  0.17641834920344257  Uiso  ?  O
O1  1.0  0.6370269447984233  0.18862678292005872  0.21042824170831534  Uiso  ?  O
O1  1.0  0.6571043402946476  0.22254285300630033  0.14787646186042738  Uiso  ?  O
O1  1.0  0.6812541573133234  0.22012666078925522  0.1819728843033101  Uiso  ?  O
O1  1.0  0.6231581306399553  0.2345408517013524  0.1699025913544218  Uiso  ?  O
O1  1.0  0.6454016324771414  0.232020574673955  0.20469843129464185  Uiso  ?  O
Ce1  1.0  0.5794295334854498  0.17461252451816536  0.17183958994494794  Uiso  ?  Ce
Ce1  1.0  0.557708851337501  0.22836991554876898  0.18871751490632926  Uiso  ?  Ce
Ce1  1.0  0.6137528554967309  0.2163871876381399  0.20347651974919906  Uiso  ?  Ce
Ce1  1.0  0.5722181266848018  0.18339942187435485  0.2316153139516604  Uiso  ?  Ce
O1  1.0  0.580400861267413  0.2034712849479193  0.19958386989941473  Uiso  ?  O
O1  1.0  0.6065552603217796  0.20288078887790512  0.23383815579475187  Uiso  ?  O
O1  1.0  0.5491695825385052  0.2106584402665276  0.2232444559006129  Uiso  ?  O
O1  1.0  0.571272215508521  0.21252036267610241  0.2583305635603921  Uiso  ?  O
O1  1.0  0.5919642436047223  0.2424504292625157  0.19489152949674937  Uiso  ?  O
O1  1.0  0.614704756426122  0.2427977711727134  0.22840360151356606  Uiso  ?  O
Ce1  1.0  0.5143737341558784  0.1972762293022667  0.21928692939426148  Uiso  ?  Ce
Ce1  1.0  0.4874157349715993  0.2444588581177001  0.2375667834667517  Uiso  ?  Ce
Ce1  1.0  0.5483569749859919  0.23774347273876856  0.24806112102015182  Uiso  ?  Ce
Ce1  1.0  0.5047210732945988  0.2059653917019524  0.27651253205612314  Uiso  ?  Ce
O1  1.0  0.5145013115387695  0.22229375457929973  0.24603625553554173  Uiso  ?  O
O1  1.0  0.5366814290383551  0.22152947550974028  0.2800702890164294  Uiso  ?  O
O1  1.0  0.48303291057880865  0.23274022816610102  0.2702781125997744  Uiso  ?  O
O1  1.0  0.5025766210508352  0.23214325907680783  0.3013844869123484  Uiso  ?  O
Ce1  1.0  0.4454216250386745  0.21988892717651792  0.2681321764403279  Uiso  ?  Ce
Ce1  1.0  0.4358779599208002  0.23247560908330822  0.3283186178687362  Uiso  ?  Ce
O1  1.0  0.44799275246040954  0.24335167691604884  0.290401083645511  Uiso  ?  O
O1  1.0  0.4684970588837943  0.2450449536622805  0.3296400923153909  Uiso  ?  O
Ce1  1.0  0.37827513871240587  0.24056389173059622  0.3128416090228291  Uiso  ?  Ce
O1  1.0  0.725337467725298  0.25128393568838253  0.15486480325049734  Uiso  ?  O
Ce1  1.0  0.6554854661643557  0.24838208622476374  0.17531374323133878  Uiso  ?  Ce
O1  1.0  0.29613784249774283  0.17301397026455245  0.4981592903982457  Uiso  ?  O
O1  1.0  0.3193425946162973  0.17135377552354075  0.5302871546182709  Uiso  ?  O
Ce1  1.0  0.23069967253574658  0.17054289042879386  0.5177709582304283  Uiso  ?  Ce
O1  1.0  0.2625856444225162  0.18082973576160724  0.5169031534967572  Uiso  ?  O
O1  1.0  0.28680124269316637  0.18147120928458088  0.5525444107733899  Uiso  ?  O
O1  1.0  0.2290351835269373  0.19149083195744893  0.5377479908704161  Uiso  ?  O
O1  1.0  0.2519682113002895  0.19373602475402235  0.5762331804562599  Uiso  ?  O
Ce1  1.0  0.15962739316287775  0.19058583206935034  0.5627668902531934  Uiso  ?  Ce
Ce1  1.0  0.21828752415715658  0.17623291025430396  0.5723772586815914  Uiso  ?  Ce
O1  1.0  0.17911487480866434  0.17475687242106952  0.6303970623854779  Uiso  ?  O
O1  1.0  0.19820893280028465  0.20551339370743446  0.5625941044148653  Uiso  ?  O
O1  1.0  0.2197873162050681  0.204566167745022  0.5992309847827181  Uiso  ?  O
O1  1.0  0.16010928269687147  0.21623296237789613  0.5856112598125033  Uiso  ?  O
O1  1.0  0.1850974193416547  0.21525997475702285  0.6211790279662596  Uiso  ?  O
O1  1.0  0.5848900302489835  0.17013577140416147  0.2983074466373048  Uiso  ?  O
O1  1.0  0.6075143636499033  0.16891812837110806  0.3338458117595738  Uiso  ?  O
O1  1.0  0.5524919482462053  0.17998012361113064  0.3205356212282868  Uiso  ?  O
O1  1.0  0.5750583290599658  0.17936631154189078  0.35290064931411325  Uiso  ?  O
O1  1.0  0.5188518477028801  0.19135659471014382  0.3444431205343186  Uiso  ?  O
O1  1.0  0.5408719921876074  0.18938860269751567  0.38115822417749623  Uiso  ?  O
Ce1  1.0  0.4497067637232919  0.18865413577856177  0.3662483110693974  Uiso  ?  Ce
Ce1  1.0  0.5072463072089978  0.17351111395151742  0.37817860911401174  Uiso  ?  Ce
O1  1.0  0.43917546762193616  0.17127362774948676  0.3975304874623896  Uiso  ?  O
O1  1.0  0.46591907137653127  0.1663924723804141  0.4317546460787393  Uiso  ?  O
O1  1.0  0.48223580168519214  0.20020376819969657  0.3702120032121191  Uiso  ?  O
O1  1.0  0.5071694259638327  0.2016392587709488  0.404675209225977  Uiso  ?  O
O1  1.0  0.44996752974294474  0.21331852433301415  0.3916315845230067  Uiso  ?  O
O1  1.0  0.47320741856238707  0.21217921336621642  0.4265286588506578  Uiso  ?  O
Ce1  1.0  0.38589677589048255  0.2081376462101986  0.4100187497582843  Uiso  ?  Ce
Ce1  1.0  0.43975698121467266  0.19752186823953313  0.42319331677052235  Uiso  ?  Ce
O1  1.0  0.4080592143179457  0.18041840790535263  0.41635199481928076  Uiso  ?  O
O1  1.0  0.43251776044867024  0.17948944704083203  0.4546879039384225  Uiso  ?  O
O1  1.0  0.37681526909617874  0.19294830866858953  0.4448986509793749  Uiso  ?  O
O1  1.0  0.396846344522656  0.19220441626945076  0.4788470854713722  Uiso  ?  O
O1  1.0  0.4177017906238203  0.2222116761288692  0.415059383023075  Uiso  ?  O
O1  1.0  0.44161882428099414  0.22146830319893604  0.44793884536151296  Uiso  ?  O
O1  1.0  0.3833018699093958  0.23188023620078643  0.4390368188013287  Uiso  ?  O
O1  1.0  0.40591626787061597  0.23327705347375377  0.4745015925853323  Uiso  ?  O
Ce1  1.0  0.34026835695111307  0.17820661513341063  0.4388399747605043  Uiso  ?  Ce
Ce1  1.0  0.3142581414253339  0.23243912906380146  0.4554606973849143  Uiso  ?  Ce
Ce1  1.0  0.3744681280177327  0.2193537511085437  0.46988943129230015  Uiso  ?  Ce
Ce1  1.0  0.3284415245739794  0.1866989941294172  0.49616768085792884  Uiso  ?  Ce
O1  1.0  0.33992372950213995  0.20501198566556103  0.46463575169325116  Uiso  ?  O
O1  1.0  0.3628461198042175  0.20084197720402594  0.5059687308821016  Uiso  ?  O
O1  1.0  0.30925430595101266  0.21244299943447056  0.4908376575722226  Uiso  ?  O
O1  1.0  0.3331607531946682  0.21246060443183962  0.5223197046298697  Uiso  ?  O
O1  1.0  0.35184792202482545  0.24434506273405524  0.464227609577106  Uiso  ?  O
O1  1.0  0.37187097439798034  0.24238575309340019  0.4969188002145469  Uiso  ?  O
Ce1  1.0  0.27270393385428787  0.19851452725788585  0.48320039632530554  Uiso  ?  Ce
Ce1  1.0  0.3039024803520226  0.2405488687120435  0.5139495122933739  Uiso  ?  Ce
Ce1  1.0  0.2653562298903237  0.21133296755072753  0.5443238881643508  Uiso  ?  Ce
O1  1.0  0.27425931621870975  0.2259395017563091  0.5130065683479276  Uiso  ?  O
O1  1.0  0.29975608409755455  0.2221113510334475  0.5468539377965737  Uiso  ?  O
O1  1.0  0.2371296858858884  0.23640863097304524  0.5405480513502092  Uiso  ?  O
O1  1.0  0.2631046097900098  0.237037592902872  0.5707924447370131  Uiso  ?  O
Ce1  1.0  0.2042239289812506  0.21988924199742405  0.5340251499753705  Uiso  ?  Ce
Ce1  1.0  0.19118614976181036  0.23078961607259876  0.5904899787573946  Uiso  ?  Ce
O1  1.0  0.20323128550239292  0.24839824253178555  0.5585638379378468  Uiso  ?  O
O1  1.0  0.23008849049703012  0.24651068340292331  0.5928047218818013  Uiso  ?  O
Ce1  1.0  0.7381192260082217  0.18229210732023773  0.16535600605671474  Uiso  ?  Ce
O1  1.0  0.7745449425190717  0.19792352360486412  0.16924488505303192  Uiso  ?  O
O1  1.0  0.7388825729419654  0.2080514126028462  0.1951165863176896  Uiso  ?  O
O1  1.0  0.7639957399356492  0.20716636403424932  0.22648678479946444  Uiso  ?  O
Ce1  1.0  0.6732596554690274  0.2052613684500018  0.2126958881043542  Uiso  ?  Ce
Ce1  1.0  0.7291787947521545  0.18995545078013232  0.22491966822576023  Uiso  ?  Ce
O1  1.0  0.6983957483684073  0.1771305531014167  0.2235331455247384  Uiso  ?  O
O1  1.0  0.7219795921380571  0.17894487222904013  0.25820871455768624  Uiso  ?  O
O1  1.0  0.6631569712908526  0.1891660470881798  0.2461786764610762  Uiso  ?  O
O1  1.0  0.6854086638615855  0.1885475648736131  0.28350164631930935  Uiso  ?  O
O1  1.0  0.7058254823614836  0.2205822959366818  0.21796214195542524  Uiso  ?  O
O1  1.0  0.7286900761036782  0.21972339036241761  0.25418182530001954  Uiso  ?  O
O1  1.0  0.6724660489995383  0.22826699623490362  0.23851163886317858  Uiso  ?  O
O1  1.0  0.6944241211714212  0.22643349240596697  0.27619260000640955  Uiso  ?  O
Ce1  1.0  0.6291505189285492  0.17476954533726066  0.24210948959636114  Uiso  ?  Ce
Ce1  1.0  0.6047125015029684  0.22641385854675336  0.25935077876979296  Uiso  ?  Ce
Ce1  1.0  0.6624032270757423  0.21389517800079558  0.2727483693110837  Uiso  ?  Ce
Ce1  1.0  0.6213062164790261  0.18368282433634306  0.2999291201544297  Uiso  ?  Ce
O1  1.0  0.6300605273723271  0.1981409490096218  0.2694480737373715  Uiso  ?  O
O1  1.0  0.6525204661401857  0.19633813316102205  0.3041938882272086  Uiso  ?  O
O1  1.0  0.5936473352118192  0.20888554604911078  0.29207273418975854  Uiso  ?  O
O1  1.0  0.6177309875899077  0.2094184962754715  0.3274176284567324  Uiso  ?  O
O1  1.0  0.6374106433721595  0.2365452564169238  0.26530678257786694  Uiso  ?  O
O1  1.0  0.6640207723266521  0.23837687337278513  0.29941171512700043  Uiso  ?  O
O1  1.0  0.6302572875826761  0.2489574039806798  0.320810939049732  Uiso  ?  O
Ce1  1.0  0.5629225980485226  0.19564932743731456  0.28813546391727396  Uiso  ?  Ce
Ce1  1.0  0.5353564667724292  0.24645366908903887  0.3103591646582876  Uiso  ?  Ce
Ce1  1.0  0.5953134898048597  0.23527511655627936  0.31949881547986775  Uiso  ?  Ce
Ce1  1.0  0.5515860532153218  0.2039472285119807  0.35059160720339044  Uiso  ?  Ce
O1  1.0  0.5605213020600764  0.21889586944730433  0.31709131901786325  Uiso  ?  O
O1  1.0  0.5820316940279308  0.22122818719071224  0.3501425094111258  Uiso  ?  O
O1  1.0  0.523496727237374  0.23086646217548398  0.340169002696681  Uiso  ?  O
O1  1.0  0.5529203570134511  0.22924627993559687  0.3757735390393243  Uiso  ?  O
Ce1  1.0  0.49629681933984804  0.2159406052032349  0.3404332199778502  Uiso  ?  Ce
Ce1  1.0  0.4858612920959237  0.2234269288887735  0.3945933467369517  Uiso  ?  Ce
O1  1.0  0.4955330813833206  0.24318787183904622  0.3627167322934801  Uiso  ?  O
O1  1.0  0.5172952604309838  0.24089741011394986  0.3980862426300894  Uiso  ?  O
Ce1  1.0  0.4247328322871881  0.23926640756555387  0.38139905377481526  Uiso  ?  Ce
Ce1  1.0  0.4149416229516868  0.24619887211816416  0.44111793522455345  Uiso  ?  Ce
Ce1  1.0  0.7735699888326295  0.22319280965543312  0.19551798351151983  Uiso  ?  Ce
O1  1.0  0.7494942164695583  0.2480478769372714  0.18898819443892714  Uiso  ?  O
O1  1.0  0.7722014778535633  0.24519919237434637  0.22690731961894794  Uiso  ?  O
Ce1  1.0  0.7138509313747514  0.23515475579605802  0.18575885836643333  Uiso  ?  Ce
Ce1  1.0  0.7081343549140043  0.24284621681432306  0.24286791318837894  Uiso  ?  Ce
O1  1.0  0.34621957249301005  0.16768607861042273  0.5651078819412368  Uiso  ?  O
O1  1.0  0.36969469866800353  0.16907802846389772  0.5990232467446654  Uiso  ?  O
Ce1  1.0  0.2762382282852769  0.1649740177516616  0.5873089288383597  Uiso  ?  Ce
O1  1.0  0.31006510733191794  0.18093652045491482  0.5876435027313995  Uiso  ?  O
O1  1.0  0.33316985808639543  0.1793505406486404  0.6221994665670947  Uiso  ?  O
O1  1.0  0.27707772180122187  0.19444429484448889  0.6115776419676349  Uiso  ?  O
O1  1.0  0.3029439911839316  0.19191377122335404  0.6484609146471957  Uiso  ?  O
Ce1  1.0  0.20744373809374272  0.18820727783020486  0.6321814208361873  Uiso  ?  Ce
Ce1  1.0  0.2681871227247238  0.1733549316795373  0.6437382733183886  Uiso  ?  Ce
O1  1.0  0.19842501691059927  0.1738375760977861  0.6637674529806292  Uiso  ?  O
O1  1.0  0.22211176369630614  0.17368770862080302  0.6986183141034872  Uiso  ?  O
O1  1.0  0.2428454702859046  0.20225205046262537  0.6329484615210593  Uiso  ?  O
O1  1.0  0.26848061428949066  0.20317957297062772  0.6690868846779221  Uiso  ?  O
O1  1.0  0.20792932870808967  0.21448119559566012  0.6580549182257157  Uiso  ?  O
O1  1.0  0.23140866041986938  0.21201885581888785  0.6942841262098653  Uiso  ?  O
Ce1  1.0  0.19901273208331402  0.19748015186243073  0.6887888372505818  Uiso  ?  Ce
O1  1.0  0.16512638026769208  0.1831863782237594  0.6895983721432203  Uiso  ?  O
O1  1.0  0.1902665968595732  0.18326541351591583  0.7220126145300614  Uiso  ?  O
O1  1.0  0.1726040471374298  0.2239770321509995  0.6792514626001663  Uiso  ?  O
O1  1.0  0.19827673060324144  0.22415735803729678  0.7169883202247379  Uiso  ?  O
O1  1.0  0.16663786931688943  0.23396831261859571  0.740283958346596  Uiso  ?  O
O1  1.0  0.5996893516252291  0.17885250754307078  0.3907649025379102  Uiso  ?  O
O1  1.0  0.6211137588168514  0.1744410486224712  0.42631460874721394  Uiso  ?  O
O1  1.0  0.5642115634421071  0.1868084265147704  0.4169923787862375  Uiso  ?  O
O1  1.0  0.5872236794830192  0.18697934085782597  0.4495374195647104  Uiso  ?  O
Ce1  1.0  0.49682262607096267  0.18342113710251462  0.4358954469798361  Uiso  ?  Ce
Ce1  1.0  0.557281052631036  0.17339653209866576  0.4471757875726834  Uiso  ?  Ce
O1  1.0  0.4880311218637733  0.16572966522215662  0.46673417266222145  Uiso  ?  O
O1  1.0  0.5125838620786237  0.16915785076851692  0.4996574861397676  Uiso  ?  O
O1  1.0  0.5309661083957499  0.1974707636955823  0.4351425310997882  Uiso  ?  O
O1  1.0  0.5549342095002952  0.19753901232160204  0.4724433323380359  Uiso  ?  O
O1  1.0  0.4970908577415883  0.21120403022707931  0.46489697343029074  Uiso  ?  O
O1  1.0  0.5228251715020992  0.20863679651613048  0.49646135504393324  Uiso  ?  O
Ce1  1.0  0.43438132136873275  0.20740580347821344  0.4793767367277881  Uiso  ?  Ce
Ce1  1.0  0.48804091860492327  0.19348182678727086  0.4924090593267705  Uiso  ?  Ce
O1  1.0  0.45613363302221543  0.17948146638759763  0.48836407728152675  Uiso  ?  O
O1  1.0  0.4803191945851915  0.1779059530350286  0.5243721454261363  Uiso  ?  O
O1  1.0  0.4182363057639809  0.1908364705535227  0.5110178656308003  Uiso  ?  O
O1  1.0  0.445159777355129  0.18939425626733206  0.5492689297789997  Uiso  ?  O
O1  1.0  0.46497092078717306  0.22128607529981284  0.4819232274270406  Uiso  ?  O
O1  1.0  0.4862731267969926  0.21728512999041114  0.5190798096349358  Uiso  ?  O
O1  1.0  0.4310346322259882  0.23062206357968484  0.5094494048957167  Uiso  ?  O
O1  1.0  0.45704497205957906  0.23041890071065368  0.5433330663715072  Uiso  ?  O
Ce1  1.0  0.38876051902250675  0.17623265208572048  0.5113087144035698  Uiso  ?  Ce
Ce1  1.0  0.3632757220816635  0.2250788401176897  0.5297160198907278  Uiso  ?  Ce
Ce1  1.0  0.4228988227983208  0.2148856117704305  0.5416383656275983  Uiso  ?  Ce
Ce1  1.0  0.37792139675700104  0.18521922132755228  0.5686612470652219  Uiso  ?  Ce
O1  1.0  0.3880653603818819  0.19939840301355666  0.537560742272919  Uiso  ?  O
O1  1.0  0.4109296988206426  0.19875859296895074  0.5704834708781965  Uiso  ?  O
O1  1.0  0.35414324145209575  0.21192964120549887  0.5594918032549554  Uiso  ?  O
O1  1.0  0.37800322115471136  0.2106185406162533  0.5943820441439759  Uiso  ?  O
O1  1.0  0.3958332834234826  0.24288233284847857  0.5317675709968771  Uiso  ?  O
O1  1.0  0.4188494231416347  0.24498000622310412  0.5664915883630965  Uiso  ?  O
Ce1  1.0  0.3219619702043206  0.19905994451506942  0.5573683944601112  Uiso  ?  Ce
Ce1  1.0  0.29362400684176126  0.24734005460636024  0.5739955944245019  Uiso  ?  Ce
Ce1  1.0  0.3525833965958046  0.23623120087307212  0.5857761572444241  Uiso  ?  Ce
Ce1  1.0  0.3093447663232408  0.20635729252367532  0.6116870555201894  Uiso  ?  Ce
O1  1.0  0.3220904361280991  0.22317047883821245  0.581254721037441  Uiso  ?  O
O1  1.0  0.3428943870180804  0.22217725194359772  0.6159963946835337  Uiso  ?  O
O1  1.0  0.28396907945253774  0.23258591156920277  0.6045485134258315  Uiso  ?  O
O1  1.0  0.30895456650353254  0.2332244220690583  0.6417181006574666  Uiso  ?  O
Ce1  1.0  0.25038787676412994  0.21922492876958008  0.601920114117762  Uiso  ?  Ce
Ce1  1.0  0.24279331189742712  0.22802826927275963  0.6618264171388747  Uiso  ?  Ce
O1  1.0  0.2528506798532512  0.2441235309624552  0.6300309419674727  Uiso  ?  O
O1  1.0  0.2756651274443916  0.24353590135912787  0.6651698168274328  Uiso  ?  O
Ce1  1.0  0.18411384194741207  0.23800806111914435  0.6462163709874639  Uiso  ?  Ce
Ce1  1.0  0.17430762311732748  0.2520616384572484  0.7117831385990118  Uiso  ?  Ce
Ce1  1.0  0.7195764298291376  0.20110028689568732  0.2819017814820529  Uiso  ?  Ce
Ce1  1.0  0.7769198169392111  0.18971852974189785  0.2970529821533192  Uiso  ?  Ce
O1  1.0  0.7417101524971227  0.1765491525372106  0.29640554058668594  Uiso  ?  O
O1  1.0  0.7671349066606572  0.17352505679885524  0.32548567598186673  Uiso  ?  O
O1  1.0  0.7095485820311068  0.18639514032639368  0.3170110202079357  Uiso  ?  O
O1  1.0  0.7330532905539665  0.1867478196429662  0.3496622102177494  Uiso  ?  O
O1  1.0  0.7525918483747047  0.217354318705467  0.2853477409619808  Uiso  ?  O
O1  1.0  0.7766854987982275  0.2173941770929942  0.3231659068801109  Uiso  ?  O
O1  1.0  0.7189020358405432  0.22667120943246002  0.3109201932894927  Uiso  ?  O
O1  1.0  0.7442636624320436  0.22366574646998083  0.34636519980635055  Uiso  ?  O
Ce1  1.0  0.6761034105017204  0.1731467340399493  0.31376370728402025  Uiso  ?  Ce
Ce1  1.0  0.6551355228710724  0.22175273719155672  0.3300247391635417  Uiso  ?  Ce
Ce1  1.0  0.7104762221083535  0.2110540306275954  0.34253353276262827  Uiso  ?  Ce
Ce1  1.0  0.6648378903217548  0.17980237942128854  0.3714135949019101  Uiso  ?  Ce
O1  1.0  0.6755874567796172  0.19480117849643852  0.34102201401528404  Uiso  ?  O
O1  1.0  0.699545555584565  0.1918645925810011  0.3762223490663519  Uiso  ?  O
O1  1.0  0.6437708883135149  0.20615580961180685  0.3612271016570989  Uiso  ?  O
O1  1.0  0.6671168707355289  0.2075177368761236  0.3982496244399163  Uiso  ?  O
O1  1.0  0.6880932898488678  0.2375606435147413  0.3373414637735925  Uiso  ?  O
O1  1.0  0.7114977874694602  0.23706717638051888  0.36897840535717297  Uiso  ?  O
O1  1.0  0.65119824642882  0.2479638358909783  0.35840688590047587  Uiso  ?  O
O1  1.0  0.676151723814286  0.2463424295716049  0.39138083974380183  Uiso  ?  O
Ce1  1.0  0.6061548523902728  0.19148492114988627  0.3586923686867623  Uiso  ?  Ce
Ce1  1.0  0.5830051975306114  0.2448056909874043  0.3788313229486036  Uiso  ?  Ce
Ce1  1.0  0.6430659964920133  0.23396878566057538  0.39066115523877826  Uiso  ?  Ce
Ce1  1.0  0.6002018008659187  0.20685660793639216  0.4163462632525958  Uiso  ?  Ce
O1  1.0  0.6113538172832772  0.21706686220906832  0.3846147613413901  Uiso  ?  O
O1  1.0  0.6345126082681344  0.21662393141502023  0.4234203348207063  Uiso  ?  O
O1  1.0  0.5764136503676668  0.22993295567731328  0.41022812837661504  Uiso  ?  O
O1  1.0  0.5985455845500477  0.22758420725083714  0.4438906771971982  Uiso  ?  O
Ce1  1.0  0.5439933601720007  0.21286210180088888  0.4044055061749758  Uiso  ?  Ce
Ce1  1.0  0.5325986821033589  0.22350777736624575  0.4650774125352126  Uiso  ?  Ce
O1  1.0  0.5435963391036123  0.24232798349269052  0.43323003734691684  Uiso  ?  O
O1  1.0  0.567546876434643  0.23705953780087163  0.46653344929313934  Uiso  ?  O
O1  1.0  0.532800801637726  0.2508555196130209  0.4907150242169677  Uiso  ?  O
Ce1  1.0  0.4736777350930855  0.23459697973433682  0.452668910951424  Uiso  ?  Ce
Ce1  1.0  0.46137997404153386  0.24572308814877822  0.5128324994523368  Uiso  ?  Ce
Ce1  1.0  0.7614151414340204  0.23261745919615343  0.2573011529915214  Uiso  ?  Ce
Ce1  1.0  0.7569671330129145  0.24209078796630681  0.31485565131128057  Uiso  ?  Ce
O1  1.0  0.38881305839228725  0.16783584199648047  0.6373464084051647  Uiso  ?  O
O1  1.0  0.4144291126466707  0.16840877950055408  0.6695620416885104  Uiso  ?  O
O1  1.0  0.35767779756471846  0.17867757551606006  0.6580230209134948  Uiso  ?  O
O1  1.0  0.3792869999964237  0.178523533104422  0.6924739424972183  Uiso  ?  O
O1  1.0  0.32255927346249746  0.188661092653995  0.682464088275838  Uiso  ?  O
O1  1.0  0.3501309364724257  0.18948295893649006  0.7173076840214471  Uiso  ?  O
Ce1  1.0  0.25746557360982225  0.18655576374858754  0.7013330810410896  Uiso  ?  Ce
Ce1  1.0  0.3144112195764222  0.1747565047144875  0.711310878838967  Uiso  ?  Ce
O1  1.0  0.24485999059788008  0.17161216455698083  0.7347023453067725  Uiso  ?  O
O1  1.0  0.2724110332262671  0.16884605498715197  0.7679798659668607  Uiso  ?  O
O1  1.0  0.288420235646362  0.20042375204784751  0.7036996727675169  Uiso  ?  O
O1  1.0  0.31405761487599404  0.20157365984265843  0.7379629445616259  Uiso  ?  O
O1  1.0  0.25767124969628913  0.2107256063497354  0.7273018391271868  Uiso  ?  O
O1  1.0  0.2784369042878919  0.21297496650126838  0.7638591637786271  Uiso  ?  O
Ce1  1.0  0.1915906893369112  0.20668002354809423  0.7493577114957867  Uiso  ?  Ce
Ce1  1.0  0.24433593577613277  0.19603645644086454  0.7643018310582451  Uiso  ?  Ce
O1  1.0  0.2131851471218743  0.18011785897596466  0.7568442229440726  Uiso  ?  O
O1  1.0  0.23760317498024797  0.17816491979698892  0.7929945755675653  Uiso  ?  O
O1  1.0  0.17849322950582505  0.1931402508431828  0.7791483258774985  Uiso  ?  O
O1  1.0  0.20337561818493938  0.19014858333218088  0.8162901598532789  Uiso  ?  O
O1  1.0  0.22598706848020542  0.22259013137979577  0.7518425048589009  Uiso  ?  O
O1  1.0  0.2478417275059932  0.2226752995573691  0.7893297978127851  Uiso  ?  O
O1  1.0  0.18876337943309163  0.23224060055785656  0.7752752540252994  Uiso  ?  O
O1  1.0  0.21489541630946268  0.23059945889331238  0.8111807207681297  Uiso  ?  O
Ce1  1.0  0.17928488780857385  0.2189473669286472  0.8055288462067526  Uiso  ?  Ce
O1  1.0  0.16776204814325746  0.1990145453138994  0.8390011133340552  Uiso  ?  O
O1  1.0  0.17964129062550022  0.24113999816152984  0.835600695477776  Uiso  ?  O
O1  1.0  0.6455803828313259  0.17317638764342222  0.46224268699586885  Uiso  ?  O
O1  1.0  0.6715686292379578  0.17272794920923004  0.49720432284788685  Uiso  ?  O
O1  1.0  0.6125339710431699  0.184904795259185  0.48577551954952236  Uiso  ?  O
O1  1.0  0.6370912392399288  0.1838616632415836  0.5193361596322419  Uiso  ?  O
Ce1  1.0  0.5460106140259654  0.1852217857606421  0.5056289144400202  Uiso  ?  Ce
Ce1  1.0  0.6045561927115162  0.17243251601933915  0.5181832733534822  Uiso  ?  Ce
O1  1.0  0.5839146940527714  0.1957571427947174  0.511382657346343  Uiso  ?  O
O1  1.0  0.6035997777582336  0.19465890431360533  0.5414040571121409  Uiso  ?  O
O1  1.0  0.5445805215389184  0.20735890852186326  0.5295869296115814  Uiso  ?  O
O1  1.0  0.5691350078080623  0.20842314167956508  0.5665293024654036  Uiso  ?  O
Ce1  1.0  0.47851276159615214  0.2054443242193769  0.5507592026290845  Uiso  ?  Ce
Ce1  1.0  0.537000976795529  0.19181376400965688  0.5631714979955712  Uiso  ?  Ce
O1  1.0  0.5027430903344684  0.1758888085762562  0.5584838249824373  Uiso  ?  O
O1  1.0  0.5263708167611058  0.17688458786925793  0.5954840540558698  Uiso  ?  O
O1  1.0  0.47070028364383826  0.1878180174653085  0.5819544832705859  Uiso  ?  O
O1  1.0  0.49162026223111527  0.18620389619453287  0.6195922257305164  Uiso  ?  O
O1  1.0  0.51154602765573  0.21787940473019995  0.5533907670046089  Uiso  ?  O
O1  1.0  0.5365515293043848  0.21380401336534763  0.5874607651091454  Uiso  ?  O
O1  1.0  0.4803958947977306  0.22854137534768493  0.5778359365069511  Uiso  ?  O
O1  1.0  0.5023031184436803  0.22597651022150536  0.6128032031158697  Uiso  ?  O
Ce1  1.0  0.43377989941215594  0.17201708718616301  0.5807390423198459  Uiso  ?  Ce
Ce1  1.0  0.41082890334892036  0.2260615367624741  0.5973821868484029  Uiso  ?  Ce
Ce1  1.0  0.4696884887393728  0.2149171781568876  0.6108748563201483  Uiso  ?  Ce
Ce1  1.0  0.42574893693881144  0.18066515614613277  0.6350591859965594  Uiso  ?  Ce
O1  1.0  0.43637322523609234  0.19899758824906372  0.6081371865145063  Uiso  ?  O
O1  1.0  0.4600448706885419  0.19714798389245006  0.6471722584660752  Uiso  ?  O
O1  1.0  0.3994191840855392  0.21169428042326363  0.6306834918832097  Uiso  ?  O
O1  1.0  0.4249328997965532  0.2114580581648955  0.664691522859753  Uiso  ?  O
O1  1.0  0.4447828487268182  0.24090732062985928  0.6006749584190016  Uiso  ?  O
O1  1.0  0.46883376577108493  0.23773360669045276  0.6331852590017442  Uiso  ?  O
O1  1.0  0.4352077370032194  0.2528822720596153  0.6586024253224706  Uiso  ?  O
Ce1  1.0  0.3672356899988056  0.19239300769861792  0.6277845070790795  Uiso  ?  Ce
Ce1  1.0  0.34263860801321977  0.24738130553801566  0.6428309744199942  Uiso  ?  Ce
Ce1  1.0  0.4011408576762297  0.2352346343429965  0.6574899333101045  Uiso  ?  Ce
Ce1  1.0  0.35922824324025626  0.2024730999107352  0.6825879080156403  Uiso  ?  Ce
O1  1.0  0.3682604572087789  0.21957198337588635  0.6549657078692196  Uiso  ?  O
O1  1.0  0.3909526948501215  0.2215066304208807  0.6888065399362502  Uiso  ?  O
O1  1.0  0.3340938834078238  0.229385140230209  0.6774107480171848  Uiso  ?  O
O1  1.0  0.359482379202231  0.23171419963852433  0.7122941033232142  Uiso  ?  O
Ce1  1.0  0.3002758373134859  0.2191698829707236  0.6716447256590035  Uiso  ?  Ce
Ce1  1.0  0.2907076656970442  0.2260903917074654  0.7340308014927539  Uiso  ?  Ce
O1  1.0  0.29713848079270266  0.24534302452340453  0.6951446546365794  Uiso  ?  O
O1  1.0  0.32242505793817255  0.24158809334923356  0.7344466342721246  Uiso  ?  O
Ce1  1.0  0.23503896509223807  0.24054680268795947  0.7198470967472266  Uiso  ?  Ce
Ce1  1.0  0.2226827391361065  0.24810819687076907  0.7773001670978584  Uiso  ?  Ce
Ce1  1.0  0.7683668805083544  0.19828264569051118  0.35304199861428875  Uiso  ?  Ce
O1  1.0  0.7582445954326228  0.18352179551696451  0.3859435271554087  Uiso  ?  O
O1  1.0  0.765825294230377  0.2260513039351405  0.3816410504959816  Uiso  ?  O
Ce1  1.0  0.7251294986998431  0.16879581810479408  0.3796861970267793  Uiso  ?  Ce
Ce1  1.0  0.7011771090347536  0.21938143080961428  0.40190327459444225  Uiso  ?  Ce
Ce1  1.0  0.7593292968231105  0.2092998480321853  0.40907026856385387  Uiso  ?  Ce
Ce1  1.0  0.7141202600674993  0.17947362441625392  0.4412482785617395  Uiso  ?  Ce
O1  1.0  0.7251597407234515  0.19354734772412038  0.41138430390266  Uiso  ?  O
O1  1.0  0.7488254777613216  0.1934419034808435  0.4476607206433705  Uiso  ?  O
O1  1.0  0.6902751558665999  0.2033357096247939  0.4344569833174134  Uiso  ?  O
O1  1.0  0.7142614224037837  0.20351497855868977  0.46787957652057904  Uiso  ?  O
O1  1.0  0.7326991201063628  0.2352445390987341  0.40299076085911123  Uiso  ?  O
O1  1.0  0.7562037893570559  0.2378747902914319  0.4367507604308738  Uiso  ?  O
O1  1.0  0.7002742428858647  0.24447195235731903  0.42735066453128806  Uiso  ?  O
O1  1.0  0.7241119528689155  0.24456840933644233  0.46032215373955493  Uiso  ?  O
Ce1  1.0  0.6557062558752259  0.18964282379274242  0.4295246177513709  Uiso  ?  Ce
Ce1  1.0  0.6341010089765211  0.24344299186372184  0.44395067168193963  Uiso  ?  Ce
Ce1  1.0  0.691198056236497  0.23094883097806046  0.4578396755457008  Uiso  ?  Ce
Ce1  1.0  0.648121191837181  0.20062482921275232  0.48814434940929025  Uiso  ?  Ce
O1  1.0  0.6594816810525918  0.21720734284835883  0.4552726113518045  Uiso  ?  O
O1  1.0  0.6791361915602314  0.21162064578564377  0.4935583283030627  Uiso  ?  O
O1  1.0  0.6221628241904112  0.22899059733981736  0.47719850651938717  Uiso  ?  O
O1  1.0  0.6483737167886809  0.22496178965980115  0.5157245053953498  Uiso  ?  O
Ce1  1.0  0.590305155676248  0.21614104056259936  0.4760814728015307  Uiso  ?  Ce
Ce1  1.0  0.5761049089370728  0.22364894052464973  0.5358910374636175  Uiso  ?  Ce
O1  1.0  0.5920339187296578  0.23768590967568165  0.503489777436103  Uiso  ?  O
O1  1.0  0.6114350878713654  0.23821568927684492  0.5383691232908817  Uiso  ?  O
O1  1.0  0.5554847966480159  0.24792484196689352  0.5232225737162156  Uiso  ?  O
O1  1.0  0.5781084228172096  0.24898246627110782  0.5604551436488756  Uiso  ?  O
Ce1  1.0  0.5201027956553308  0.23245905757223884  0.5205476295849154  Uiso  ?  Ce
Ce1  1.0  0.510630502461817  0.24126833594092106  0.5815462139508831  Uiso  ?  Ce
O1  1.0  0.403754799130061  0.17879774876045446  0.730773188758599  Uiso  ?  O
O1  1.0  0.42692297718791405  0.17422039348276042  0.7643012774662571  Uiso  ?  O
O1  1.0  0.371628146623757  0.1890576478466399  0.7513559477332608  Uiso  ?  O
O1  1.0  0.39805299507863573  0.19071135237581766  0.7859905180540455  Uiso  ?  O
Ce1  1.0  0.30326233075166414  0.18324906004904776  0.7722390186254213  Uiso  ?  Ce
Ce1  1.0  0.36080008683117454  0.17184766568389448  0.7833435748752603  Uiso  ?  Ce
O1  1.0  0.2927241673252812  0.1660280786979553  0.8045919058660288  Uiso  ?  O
O1  1.0  0.33913030201514677  0.1987433689189298  0.7745906068289048  Uiso  ?  O
O1  1.0  0.3601953000404995  0.19685369692199897  0.8111299437903831  Uiso  ?  O
O1  1.0  0.307976382519352  0.20930982454944386  0.7967850120513504  Uiso  ?  O
O1  1.0  0.33088848675608273  0.2101026620622185  0.8336795019388133  Uiso  ?  O
Ce1  1.0  0.23966899513344883  0.20645277379613622  0.8187699916644334  Uiso  ?  Ce
Ce1  1.0  0.2942263560260387  0.19408943543951304  0.8280596207768645  Uiso  ?  Ce
O1  1.0  0.2622938691885519  0.1775932106620791  0.8242726237665543  Uiso  ?  O
O1  1.0  0.2826299439738538  0.1773809111916595  0.8612406572318504  Uiso  ?  O
O1  1.0  0.22833007617082157  0.19027807404730174  0.852704601042392  Uiso  ?  O
O1  1.0  0.2505929146688771  0.19085587388762779  0.8864081149617943  Uiso  ?  O
O1  1.0  0.27028635434240983  0.2188600885711345  0.8219705779167246  Uiso  ?  O
O1  1.0  0.2909187591821924  0.21861014715911253  0.8555325309927048  Uiso  ?  O
O1  1.0  0.23632589566167614  0.23072965764842301  0.8438724414515234  Uiso  ?  O
O1  1.0  0.26456557831932087  0.22759548223837608  0.880419897047173  Uiso  ?  O
Ce1  1.0  0.18989409596769385  0.17624036025264883  0.8485290622440134  Uiso  ?  Ce
Ce1  1.0  0.16914550633755232  0.22885116351434712  0.8653914275794709  Uiso  ?  Ce
Ce1  1.0  0.22748617000075244  0.21541308969141754  0.878657842272722  Uiso  ?  Ce
O1  1.0  0.19446909940096127  0.19857908934999738  0.8729440564041925  Uiso  ?  O
O1  1.0  0.20331665734076004  0.24202179061658385  0.8682062171108256  Uiso  ?  O
O1  1.0  0.6944755028498145  0.17036459259528497  0.5314916748519275  Uiso  ?  O
O1  1.0  0.7168913685067166  0.17092078481320944  0.5673673557095379  Uiso  ?  O
O1  1.0  0.662267749493614  0.18582964297100626  0.5550273514326108  Uiso  ?  O
O1  1.0  0.684072336195195  0.18201378982834449  0.5898572955149748  Uiso  ?  O
Ce1  1.0  0.5913229069364219  0.17937369621025337  0.5761870154880736  Uiso  ?  Ce
Ce1  1.0  0.6491472005132748  0.16824134298405216  0.5885611040864632  Uiso  ?  Ce
O1  1.0  0.6275979429723954  0.1953701262073528  0.5780208921579384  Uiso  ?  O
O1  1.0  0.6523013733203681  0.19508208181186035  0.613575119819343  Uiso  ?  O
O1  1.0  0.5950996312473231  0.2014995718246904  0.6000139420924115  Uiso  ?  O
O1  1.0  0.6195316757873576  0.20331838657741022  0.6338384992008365  Uiso  ?  O
Ce1  1.0  0.5272353012506446  0.2031417977589348  0.6192152740291356  Uiso  ?  Ce
Ce1  1.0  0.5822698361208569  0.19169530434517482  0.6329772084718787  Uiso  ?  Ce
O1  1.0  0.5496267441397026  0.17387907339159644  0.6305716887642782  Uiso  ?  O
O1  1.0  0.573950137514963  0.1751084420163908  0.6687777285323901  Uiso  ?  O
O1  1.0  0.5133137706531032  0.188849481947978  0.6538274138985845  Uiso  ?  O
O1  1.0  0.5401546241392682  0.18325598577646707  0.689530716379097  Uiso  ?  O
O1  1.0  0.560092983657153  0.21612749767786488  0.6240986449848627  Uiso  ?  O
O1  1.0  0.586602085708642  0.21478518804041186  0.6583733733814822  Uiso  ?  O
O1  1.0  0.5263909512215116  0.2286975665834732  0.6497077385327766  Uiso  ?  O
O1  1.0  0.5505201099869219  0.22335123893001685  0.6791931568312024  Uiso  ?  O
Ce1  1.0  0.48221334189251425  0.17167425015384724  0.6468358254499066  Uiso  ?  Ce
Ce1  1.0  0.4578172155916951  0.2230563293011541  0.669640629539373  Uiso  ?  Ce
Ce1  1.0  0.5149118790618381  0.20879748819338917  0.678999177049318  Uiso  ?  Ce
Ce1  1.0  0.47470964070680766  0.1788902463473213  0.7088220475473498  Uiso  ?  Ce
O1  1.0  0.483526865605187  0.19598419648433538  0.6756488255582394  Uiso  ?  O
O1  1.0  0.5077893248808397  0.19414012237551972  0.7132857974982592  Uiso  ?  O
O1  1.0  0.449226979058354  0.20691030960516058  0.6996605868230449  Uiso  ?  O
O1  1.0  0.47107032601093596  0.20607369378953858  0.7329387131752539  Uiso  ?  O
O1  1.0  0.4920881588807362  0.2389494733540158  0.6740863699261558  Uiso  ?  O
O1  1.0  0.514350239732731  0.2350976536526218  0.7081277340172457  Uiso  ?  O
O1  1.0  0.45848229042227195  0.24859566705699443  0.6951586470563303  Uiso  ?  O
O1  1.0  0.4831775703989912  0.24719262311851473  0.7285993792191654  Uiso  ?  O
Ce1  1.0  0.41335318083658107  0.19079713977446802  0.6992155334887754  Uiso  ?  Ce
Ce1  1.0  0.3910221602518882  0.2430459254392656  0.7130927150138098  Uiso  ?  Ce
Ce1  1.0  0.4473713373950229  0.23501344157277868  0.7253635006168455  Uiso  ?  Ce
Ce1  1.0  0.4042584726369727  0.20016424586716083  0.7532290044572888  Uiso  ?  Ce
O1  1.0  0.41242810475899055  0.2189867856802126  0.7252243555892552  Uiso  ?  O
O1  1.0  0.4381998952662078  0.21785994052331473  0.7573040353527198  Uiso  ?  O
O1  1.0  0.3840216373877611  0.22710292778551303  0.7452451149709071  Uiso  ?  O
O1  1.0  0.40571036254975  0.22891984734402007  0.7820686272807016  Uiso  ?  O
Ce1  1.0  0.35195611443199326  0.21612492804962247  0.7443726691105841  Uiso  ?  Ce
Ce1  1.0  0.3357398815927556  0.22429271323185776  0.8035471730862629  Uiso  ?  Ce
O1  1.0  0.3466801830467961  0.24225006783908778  0.7710497500277953  Uiso  ?  O
O1  1.0  0.37226122384322824  0.23773403968103712  0.8048546283461026  Uiso  ?  O
O1  1.0  0.33624867001898817  0.250807829363417  0.8285450964300439  Uiso  ?  O
Ce1  1.0  0.28255146711267176  0.23511220113156173  0.790813945893644  Uiso  ?  Ce
Ce1  1.0  0.2689871558772625  0.24656107440283406  0.847956439847291  Uiso  ?  Ce
Ce1  1.0  0.746863530138804  0.21940668111043904  0.46974545502070714  Uiso  ?  Ce
Ce1  1.0  0.7612490624279568  0.17772396305330576  0.5107445108862122  Uiso  ?  Ce
O1  1.0  0.7719408878715741  0.19202000738656055  0.48028159676068  Uiso  ?  O
O1  1.0  0.7372771440015641  0.20336402961717304  0.5061410177143885  Uiso  ?  O
O1  1.0  0.7619606040148622  0.2014429958272014  0.5389067367983037  Uiso  ?  O
O1  1.0  0.748166219837078  0.23969807478168972  0.5013344233344829  Uiso  ?  O
O1  1.0  0.7728435592420049  0.24335399524488144  0.5326753801925823  Uiso  ?  O
Ce1  1.0  0.7045565348389338  0.18872064949062015  0.49939294897763503  Uiso  ?  Ce
Ce1  1.0  0.6811084666568057  0.24095730270735985  0.5185049063943009  Uiso  ?  Ce
Ce1  1.0  0.7394963207460029  0.2273579554882405  0.5283354126600939  Uiso  ?  Ce
Ce1  1.0  0.6949375223571255  0.19609894652217866  0.5553313618837225  Uiso  ?  Ce
O1  1.0  0.7061162225640093  0.21501210726002257  0.5285532302060588  Uiso  ?  O
O1  1.0  0.7249331672305712  0.21443983838003766  0.5623977853213429  Uiso  ?  O
O1  1.0  0.6694867697414345  0.2209164563813756  0.5512420895345332  Uiso  ?  O
O1  1.0  0.6958623082248542  0.22352088101051273  0.5830576471632979  Uiso  ?  O
Ce1  1.0  0.6384517371714596  0.20987469495866723  0.5433463258536624  Uiso  ?  Ce
Ce1  1.0  0.6690573647316466  0.24905396240411729  0.578565934889751  Uiso  ?  Ce
Ce1  1.0  0.6273789678899543  0.2226642181481977  0.6066914268875934  Uiso  ?  Ce
O1  1.0  0.6378864641961638  0.23570230611306223  0.5756695712765355  Uiso  ?  O
O1  1.0  0.6619253636034931  0.233012253069612  0.6086201699333694  Uiso  ?  O
O1  1.0  0.6042120177686534  0.24587628097365774  0.5951281602667905  Uiso  ?  O
O1  1.0  0.6251793413747474  0.24554973944466615  0.6309537052241128  Uiso  ?  O
Ce1  1.0  0.5714779659510629  0.23160594100519383  0.5941384504669612  Uiso  ?  Ce
Ce1  1.0  0.5577625653450351  0.2386933532797383  0.6525908354978793  Uiso  ?  Ce
O1  1.0  0.45452473803509874  0.175694647316168  0.7985696436682826  Uiso  ?  O
O1  1.0  0.48008787566171945  0.17522730871761422  0.8334799451439001  Uiso  ?  O
O1  1.0  0.4221577717668751  0.1843103294150291  0.8244450422864048  Uiso  ?  O
O1  1.0  0.44390176248160446  0.18370338927910954  0.8568082683559582  Uiso  ?  O
Ce1  1.0  0.3532643653397324  0.18184737405051965  0.8438826683120118  Uiso  ?  Ce
Ce1  1.0  0.4096982089622157  0.17048355504381105  0.8529012678893595  Uiso  ?  Ce
O1  1.0  0.38346675629994276  0.196014444890663  0.8444286627527423  Uiso  ?  O
O1  1.0  0.40636892848728356  0.19494786563645933  0.8811738908088895  Uiso  ?  O
O1  1.0  0.3486269062584023  0.20993223007811992  0.869380703217738  Uiso  ?  O
Ce1  1.0  0.28591259958056386  0.2042698921796854  0.8874022395496474  Uiso  ?  Ce
O1  1.0  0.31805219015693875  0.21981231833731651  0.8916092269496577  Uiso  ?  O
O1  1.0  0.7425371418116047  0.16798145470891043  0.6017492066254028  Uiso  ?  O
O1  1.0  0.7686231635233155  0.1671684496665616  0.6388485168516563  Uiso  ?  O
O1  1.0  0.709621545981317  0.18172302783542818  0.6281143008794486  Uiso  ?  O
O1  1.0  0.7354181074079104  0.18032400195021023  0.6616927678525479  Uiso  ?  O
Ce1  1.0  0.6374137124227107  0.17746679120997785  0.6455415811207412  Uiso  ?  Ce
O1  1.0  0.6757350288996847  0.19170975188761674  0.6489291048770094  Uiso  ?  O
O1  1.0  0.6964721775634414  0.19035844504161797  0.6841467005536089  Uiso  ?  O
O1  1.0  0.644159663372267  0.2031638656168408  0.6718108842773342  Uiso  ?  O
O1  1.0  0.665217908912913  0.2025479442969772  0.7074176433543836  Uiso  ?  O
Ce1  1.0  0.5767166350198708  0.20076088097546216  0.6909395053790595  Uiso  ?  Ce
Ce1  1.0  0.6313884073607873  0.1902632900740163  0.7024667383036036  Uiso  ?  Ce
O1  1.0  0.5968673216679208  0.1740436850822027  0.7010021966442983  Uiso  ?  O
O1  1.0  0.6213603559108574  0.17108279118464736  0.7370607478042427  Uiso  ?  O
O1  1.0  0.5661870616480185  0.18581856016313542  0.7240441991251435  Uiso  ?  O
O1  1.0  0.5896790459264992  0.18319991870049523  0.7572248258141729  Uiso  ?  O
O1  1.0  0.6056216448433547  0.21136717762743443  0.6938737999112327  Uiso  ?  O
O1  1.0  0.6297406566109968  0.21337135947096636  0.727655475479174  Uiso  ?  O
O1  1.0  0.575570936398276  0.22426599003392017  0.7203990513358631  Uiso  ?  O
O1  1.0  0.5966234116147255  0.2239215068833799  0.7533544754234104  Uiso  ?  O
Ce1  1.0  0.531656397414461  0.16842933480729763  0.7220759703293135  Uiso  ?  Ce
Ce1  1.0  0.5057663632977759  0.21849866108851665  0.7403143978322784  Uiso  ?  Ce
Ce1  1.0  0.560572686098366  0.20917189420600787  0.7516357985498369  Uiso  ?  Ce
Ce1  1.0  0.5198789919117714  0.1776832865395274  0.7797578942078477  Uiso  ?  Ce
O1  1.0  0.5304199554556931  0.1943517498273787  0.7490290771076515  Uiso  ?  O
O1  1.0  0.5555508598998438  0.19316747652930802  0.7815087412628212  Uiso  ?  O
O1  1.0  0.49863949337382213  0.2037518780517299  0.7715287966425396  Uiso  ?  O
O1  1.0  0.5191877158652453  0.20637815057275372  0.8058285328396179  Uiso  ?  O
O1  1.0  0.5400062687164257  0.23444602872860146  0.7412739258278292  Uiso  ?  O
O1  1.0  0.5618182021713416  0.23619333264175443  0.7768939254784496  Uiso  ?  O
O1  1.0  0.5092391666509755  0.24514162117024296  0.7636348094425487  Uiso  ?  O
O1  1.0  0.5286114933659914  0.24181243136658556  0.8010861232182638  Uiso  ?  O
Ce1  1.0  0.4628308071723794  0.18937054731854633  0.7666073230222834  Uiso  ?  Ce
Ce1  1.0  0.43614383266311807  0.2427701119775866  0.7839728070972285  Uiso  ?  Ce
Ce1  1.0  0.4962039377451033  0.23167573608861353  0.7976268638413242  Uiso  ?  Ce
Ce1  1.0  0.44980071485554945  0.19804472862540232  0.8220742509064732  Uiso  ?  Ce
O1  1.0  0.46201315982536467  0.21514126662852762  0.7924270912747793  Uiso  ?  O
O1  1.0  0.4901282799152181  0.21427764781436234  0.8274933655104298  Uiso  ?  O
O1  1.0  0.42658026851997094  0.22211296317117948  0.8151397807226977  Uiso  ?  O
O1  1.0  0.45297509006540215  0.22530203102191293  0.8510709345875791  Uiso  ?  O
Ce1  1.0  0.3954726762782534  0.2101373999049887  0.813319962597324  Uiso  ?  Ce
Ce1  1.0  0.38600571130208505  0.22194186914812394  0.8709009141388386  Uiso  ?  Ce
O1  1.0  0.39378640151853384  0.2380356934880074  0.841323259513202  Uiso  ?  O
O1  1.0  0.41839664537824894  0.23837360285822257  0.8754035348282097  Uiso  ?  O
O1  1.0  0.3635614419765932  0.2486031411026264  0.8613690824819542  Uiso  ?  O
Ce1  1.0  0.3291126747449124  0.23490907886944903  0.8600634894985238  Uiso  ?  Ce
Ce1  1.0  0.7529439908756026  0.18601337618329472  0.56947467822928  Uiso  ?  Ce
Ce1  1.0  0.7269113506320183  0.24017988421275274  0.5877261198496809  Uiso  ?  Ce
Ce1  1.0  0.7395467225354093  0.1959878934610862  0.6300393027033824  Uiso  ?  Ce
O1  1.0  0.7532874727322838  0.21287066719794767  0.596437473733139  Uiso  ?  O
O1  1.0  0.77787086860254  0.20895470545969994  0.6323093090579098  Uiso  ?  O
O1  1.0  0.7178660495836281  0.22216099662220637  0.6220159871123929  Uiso  ?  O
O1  1.0  0.7397630345488996  0.22027183490600227  0.6548022489438038  Uiso  ?  O
Ce1  1.0  0.6828625796270235  0.2065022385820063  0.6173293168193739  Uiso  ?  Ce
Ce1  1.0  0.7187861720532486  0.2481909733375817  0.6463855283130269  Uiso  ?  Ce
Ce1  1.0  0.675197684993861  0.21655787077964  0.6729297078248277  Uiso  ?  Ce
O1  1.0  0.6859213192861656  0.23623425525219535  0.6427630724423032  Uiso  ?  O
O1  1.0  0.7091727706042806  0.23162155658530428  0.6795077014228981  Uiso  ?  O
O1  1.0  0.6526106365315542  0.24396946396103766  0.6637078532013795  Uiso  ?  O
O1  1.0  0.6733350936537341  0.2418156391464037  0.699743771520761  Uiso  ?  O
Ce1  1.0  0.6190629252740831  0.2289211964107685  0.6629937948860446  Uiso  ?  Ce
Ce1  1.0  0.6047477910120572  0.23916013588484927  0.7217368544242092  Uiso  ?  Ce
O1  1.0  0.5001400998610919  0.17266285023027308  0.8692713411820796  Uiso  ?  O
O1  1.0  0.4663969787699298  0.18420667563368112  0.8920326585819532  Uiso  ?  O
O1  1.0  0.7568237292246887  0.18137968306689536  0.6963424747604363  Uiso  ?  O
O1  1.0  0.7796712669807592  0.17718412643708847  0.729707104524041  Uiso  ?  O
Ce1  1.0  0.687520947150623  0.1759494842311562  0.7151327701431175  Uiso  ?  Ce
O1  1.0  0.7212128920181884  0.19087451593603028  0.7174311478097102  Uiso  ?  O
O1  1.0  0.7469172857167029  0.1900143702666864  0.7565652052523089  Uiso  ?  O
O1  1.0  0.6887843651141975  0.20222234716904222  0.7413738241621353  Uiso  ?  O
O1  1.0  0.7138300386506432  0.1959299009594287  0.7793449878451517  Uiso  ?  O
Ce1  1.0  0.623523311593234  0.19551616461644916  0.7622810754051899  Uiso  ?  Ce
Ce1  1.0  0.6806725365323755  0.18289969988627963  0.7731038080278612  Uiso  ?  Ce
O1  1.0  0.6456122366502046  0.172226181764819  0.7726144808778852  Uiso  ?  O
O1  1.0  0.6687848378322534  0.16947608747738993  0.8078154767885088  Uiso  ?  O
O1  1.0  0.6105653676624685  0.18069727567402943  0.7915337293560418  Uiso  ?  O
O1  1.0  0.634344836828183  0.18194168499370966  0.8305641834717299  Uiso  ?  O
O1  1.0  0.652825461591363  0.20965516499366588  0.762342766386959  Uiso  ?  O
O1  1.0  0.6814532459385908  0.20977803462981062  0.8008658111464011  Uiso  ?  O
O1  1.0  0.6231218113614867  0.22145830148507276  0.785776727850534  Uiso  ?  O
O1  1.0  0.6427289707732137  0.2233796262297981  0.8240181270362938  Uiso  ?  O
Ce1  1.0  0.5539174043731849  0.21899482458514993  0.8067485575666882  Uiso  ?  Ce
Ce1  1.0  0.6120982022373689  0.2086597398780574  0.8197609866058326  Uiso  ?  Ce
Ce1  1.0  0.5677510626788232  0.17689023674338492  0.847849843750582  Uiso  ?  Ce
O1  1.0  0.5791916393571089  0.1910040123928365  0.8175090652051376  Uiso  ?  O
O1  1.0  0.6029324193713612  0.19104930455189106  0.8518452073155608  Uiso  ?  O
O1  1.0  0.5471774720733474  0.20495383571203982  0.8435241229867245  Uiso  ?  O
O1  1.0  0.5690698877492472  0.2013687680490885  0.8745575225261182  Uiso  ?  O
O1  1.0  0.5914369292228857  0.2335038040461174  0.8093926444822082  Uiso  ?  O
O1  1.0  0.6123832715062969  0.2329665840044745  0.847437995232623  Uiso  ?  O
O1  1.0  0.5514711242323175  0.2418665622968506  0.8328939708054474  Uiso  ?  O
O1  1.0  0.5781558433453935  0.24401304497029647  0.8698148441324259  Uiso  ?  O
Ce1  1.0  0.5115894963925617  0.18822147554063656  0.8380140068267031  Uiso  ?  Ce
Ce1  1.0  0.48679407145922704  0.24020749888611018  0.8544319297349414  Uiso  ?  Ce
Ce1  1.0  0.54118660035711  0.22794284184365293  0.8691268093213532  Uiso  ?  Ce
O1  1.0  0.5104312303541362  0.21446952678961675  0.86560168905475  Uiso  ?  O
O1  1.0  0.47686322681910626  0.22368763012697923  0.8861209360649135  Uiso  ?  O
Ce1  1.0  0.4419491824969435  0.210095565158441  0.8841983402360096  Uiso  ?  Ce
Ce1  1.0  0.777377895067192  0.2362105876128067  0.6594526111344513  Uiso  ?  Ce
O1  1.0  0.7656543989549168  0.22103541721015962  0.687818271495371  Uiso  ?  O
Ce1  1.0  0.7336091150391003  0.2054882648132837  0.685957044489126  Uiso  ?  Ce
Ce1  1.0  0.7659787713587748  0.24451253944983356  0.7177602309222574  Uiso  ?  Ce
Ce1  1.0  0.7226958581164379  0.21577784552996795  0.7449605660737778  Uiso  ?  Ce
O1  1.0  0.7320101750825904  0.2281279686990055  0.7112696525857451  Uiso  ?  O
O1  1.0  0.7545640377412005  0.23049107545076544  0.7469755418772975  Uiso  ?  O
O1  1.0  0.6979652307622148  0.2395909197097727  0.7351403914439729  Uiso  ?  O
O1  1.0  0.7219205745432697  0.23924362427919338  0.7726549286056106  Uiso  ?  O
Ce1  1.0  0.6656040619942961  0.22605654466448916  0.7343797191368822  Uiso  ?  Ce
Ce1  1.0  0.6567475832684004  0.23629691893938945  0.7921284225929921  Uiso  ?  Ce
Ce1  1.0  0.6000335711812161  0.24972566138562732  0.7815260291189526  Uiso  ?  Ce
Ce1  1.0  0.7363486211174763  0.1717620035194628  0.7864795826535095  Uiso  ?  Ce
O1  1.0  0.7706576170756928  0.18647250501544776  0.7886247741659291  Uiso  ?  O
O1  1.0  0.7337115769132501  0.2008511382436724  0.8127437781070695  Uiso  ?  O
O1  1.0  0.7616712978166084  0.19577710206747567  0.8476034432508888  Uiso  ?  O
Ce1  1.0  0.6681290699628204  0.19473428830569217  0.8319055037841502  Uiso  ?  Ce
Ce1  1.0  0.7293463222838911  0.18338765575090207  0.8448909397605687  Uiso  ?  Ce
O1  1.0  0.6939750150968891  0.165687728591143  0.8394651256136827  Uiso  ?  O
O1  1.0  0.6613573755398748  0.17865444286577828  0.8635898006391447  Uiso  ?  O
O1  1.0  0.7010805459490261  0.20991171972994452  0.835826002611584  Uiso  ?  O
O1  1.0  0.667627053924701  0.21823852282823133  0.8594695581430286  Uiso  ?  O
Ce1  1.0  0.6031276131530048  0.2166457875201447  0.8801031806200258  Uiso  ?  Ce
Ce1  1.0  0.65696149830877  0.20440784506515225  0.8925677351185783  Uiso  ?  Ce
O1  1.0  0.6218965034833113  0.19126985786433026  0.8880504858934515  Uiso  ?  O
Ce1  1.0  0.7791622168017818  0.2011175889643369  0.7558822002807516  Uiso  ?  Ce
Ce1  1.0  0.7140268878714487  0.22648618015838318  0.8037859819023047  Uiso  ?  Ce
O1  1.0  0.17020154614846067  0.15975241551552574  0.16855137221267402  Uiso  ?  O
O1  1.0  0.1942409658019846  0.1603577986832112  0.2024883036651377  Uiso  ?  O
O1  1.0  0.22451271719312715  0.1578626104390458  0.23602759284386593  Uiso  ?  O
O1  1.0  0.2423222270038138  0.15820919792735463  0.2736441598137827  Uiso  ?  O
O1  1.0  0.35527938260691305  0.16450216647488156  0.19692421823591216  Uiso  ?  O
Ce1  1.0  0.26537727740432615  0.16358301379506557  0.18601917320514344  Uiso  ?  Ce
O1  1.0  0.2675049915730541  0.15815531668954935  0.30992898242767214  Uiso  ?  O
O1  1.0  0.2570360267063994  0.16388583218201525  0.3683106328785685  Uiso  ?  O
Ce1  1.0  0.18953905149740546  0.16496059167811108  0.38860674774510195  Uiso  ?  Ce
O1  1.0  0.522790972888623  0.16592541906853178  0.13409455100898632  Uiso  ?  O
O1  1.0  0.5482005634117233  0.1618525803956672  0.17025026387985168  Uiso  ?  O
Ce1  1.0  0.4832234237069237  0.15908613734910365  0.18967842701426557  Uiso  ?  Ce
O1  1.0  0.3780255508339391  0.16648373171922923  0.23557633800938993  Uiso  ?  O
O1  1.0  0.40436375033452926  0.16644912489543115  0.26871865359978814  Uiso  ?  O
Ce1  1.0  0.3127852643397831  0.16181088482126366  0.25282572880420207  Uiso  ?  Ce
O1  1.0  0.28178536795823766  0.16572149723259735  0.40155457504335196  Uiso  ?  O
O1  1.0  0.30744802105649766  0.1642786747079062  0.4369322027264506  Uiso  ?  O
Ce1  1.0  0.238489569764066  0.16175670349883242  0.455746171559434  Uiso  ?  Ce
O1  1.0  0.160110852543671  0.16689594509520855  0.5388142466301968  Uiso  ?  O
O1  1.0  0.5701839184768661  0.16239562470755808  0.20422283514025996  Uiso  ?  O
O1  1.0  0.5960677853243277  0.15945035158141957  0.23982912498116477  Uiso  ?  O
O1  1.0  0.4252794630445419  0.1645462372271852  0.3018957152337446  Uiso  ?  O
O1  1.0  0.452115276210313  0.1641831470908536  0.3366986706761655  Uiso  ?  O
Ce1  1.0  0.3566431669988094  0.1580727282244145  0.32422621614686115  Uiso  ?  Ce
O1  1.0  0.7408656283638742  0.1574385809296315  0.14016025893424736  Uiso  ?  O
Ce1  1.0  0.6380645676323226  0.1639769817377828  0.18542923941038839  Uiso  ?  Ce
O1  1.0  0.32876576063171076  0.16262884542420813  0.4667858919219515  Uiso  ?  O
O1  1.0  0.3539309882612454  0.16018666432580128  0.5061875191228457  Uiso  ?  O
Ce1  1.0  0.2854175288385104  0.15741921489410207  0.5248579389336604  Uiso  ?  Ce
O1  1.0  0.18554738015748437  0.1629636320012959  0.5694181751671582  Uiso  ?  O
O1  1.0  0.2074646641733103  0.16560830127948623  0.6044850938880871  Uiso  ?  O
O1  1.0  0.619589614252461  0.1580366683648198  0.27615535549593034  Uiso  ?  O
O1  1.0  0.6446463704420278  0.15797031749874468  0.3085826765572432  Uiso  ?  O
Ce1  1.0  0.5191441959424239  0.16522873626804654  0.31754158190912785  Uiso  ?  Ce
O1  1.0  0.4750472212048583  0.16061617605449907  0.37512541001509003  Uiso  ?  O
O1  1.0  0.4970448801067595  0.16061794414301758  0.4062877939862634  Uiso  ?  O
Ce1  1.0  0.4082245000946781  0.15741513788470507  0.3950971628646265  Uiso  ?  Ce
Ce1  1.0  0.3981989617996621  0.16886510686559253  0.4514997322303211  Uiso  ?  Ce
O1  1.0  0.7310548726333087  0.16596931838271223  0.19807706055183177  Uiso  ?  O
O1  1.0  0.7550162345940593  0.16628849644820112  0.23238819482147885  Uiso  ?  O
Ce1  1.0  0.6885132241925718  0.164012802153724  0.251817650258471  Uiso  ?  Ce
O1  1.0  0.3790719100618476  0.16143758099060154  0.5412755365524704  Uiso  ?  O
O1  1.0  0.3999795067241355  0.1570866044817236  0.576798992133171  Uiso  ?  O
O1  1.0  0.2307251767446554  0.16251286793818778  0.6423071600699043  Uiso  ?  O
O1  1.0  0.256860806855706  0.16150818763923816  0.6770420866128112  Uiso  ?  O
Ce1  1.0  0.164633287095709  0.16100402119791404  0.6608655864038602  Uiso  ?  Ce
O1  1.0  0.6325974830165912  0.16352784325810849  0.3678893338521291  Uiso  ?  O
O1  1.0  0.6581148220807904  0.16627932533554357  0.40298443948167234  Uiso  ?  O
Ce1  1.0  0.5662915123308665  0.1616429872364941  0.38968441095602324  Uiso  ?  Ce
O1  1.0  0.5219965738532684  0.16066909197835713  0.4444697258568254  Uiso  ?  O
Ce1  1.0  0.4451132869501617  0.16445944760763928  0.5198621363689342  Uiso  ?  Ce
O1  1.0  0.7765172674528263  0.16468620946917586  0.2669603373564809  Uiso  ?  O
Ce1  1.0  0.7355901799907519  0.1593310446280849  0.3262898725719225  Uiso  ?  Ce
O1  1.0  0.16063473707764556  0.16058258185825736  0.8448869572681026  Uiso  ?  O
O1  1.0  0.4239886633486056  0.1596451255561786  0.6111607750271455  Uiso  ?  O
O1  1.0  0.450680933032296  0.15817834604821743  0.6466807508279283  Uiso  ?  O
Ce1  1.0  0.3259499493050502  0.1635189542227929  0.6566063167703445  Uiso  ?  Ce
O1  1.0  0.28492542971852897  0.1624265745213515  0.7110580492034811  Uiso  ?  O
O1  1.0  0.30822078263151775  0.16178933942854998  0.7450844517544967  Uiso  ?  O
Ce1  1.0  0.20268732841303233  0.16636994570940986  0.7891606579917146  Uiso  ?  Ce
O1  1.0  0.6802198071048828  0.16260102194593534  0.44044954641501194  Uiso  ?  O
O1  1.0  0.708370180575164  0.16505062980291074  0.474180394229571  Uiso  ?  O
Ce1  1.0  0.6135569596203556  0.16069643206115766  0.45883315025523624  Uiso  ?  Ce
O1  1.0  0.5693286618896719  0.15772039386180214  0.5123960628389725  Uiso  ?  O
O1  1.0  0.5942499340898513  0.1570561379295282  0.5463645013696884  Uiso  ?  O
O1  1.0  0.5355021964185639  0.16792111822987502  0.5367592728107436  Uiso  ?  O
O1  1.0  0.558757727308703  0.16406539413534477  0.5708441323516461  Uiso  ?  O
Ce1  1.0  0.4960835458777162  0.16534658993928864  0.5928818625310411  Uiso  ?  Ce
O1  1.0  0.182381427140022  0.1609887136794407  0.878451526698285  Uiso  ?  O
O1  1.0  0.497201402981987  0.15856507430212408  0.71779157656845  Uiso  ?  O
O1  1.0  0.4413848522918673  0.16591394002970994  0.7064279145126223  Uiso  ?  O
O1  1.0  0.46124981604884596  0.16534233019360434  0.7411618818833169  Uiso  ?  O
Ce1  1.0  0.36887830632651064  0.1646399861006363  0.726384454724276  Uiso  ?  Ce
O1  1.0  0.3307694564524058  0.16007027778617003  0.7777044048220113  Uiso  ?  O
O1  1.0  0.3198216396545362  0.16732135546399474  0.8390579972847118  Uiso  ?  O
Ce1  1.0  0.24988380230162446  0.16298318111998641  0.861196219005001  Uiso  ?  Ce
O1  1.0  0.7307553500648948  0.16260805259954514  0.5092410588336249  Uiso  ?  O
O1  1.0  0.7511027847358733  0.16257541208606752  0.5432979970059436  Uiso  ?  O
Ce1  1.0  0.6580065580175156  0.15932242729949783  0.5263854850552481  Uiso  ?  Ce
O1  1.0  0.5816825029422809  0.160469916359713  0.6053403480083394  Uiso  ?  O
O1  1.0  0.6075161811787924  0.1627336126122419  0.6444473200706119  Uiso  ?  O
Ce1  1.0  0.5430462377537065  0.15848607915878618  0.6596399687845723  Uiso  ?  Ce
Ce1  1.0  0.7700841413095826  0.16932218722245412  0.4557811929777164  Uiso  ?  Ce
O1  1.0  0.4883055344538887  0.1660468809970899  0.771303498147392  Uiso  ?  O
O1  1.0  0.5113174627422501  0.16313555533494975  0.8092040194014255  Uiso  ?  O
Ce1  1.0  0.4224166568703511  0.16261083760499473  0.7986002450083892  Uiso  ?  Ce
O1  1.0  0.3746136299225791  0.1570003800945415  0.8507357186923018  Uiso  ?  O
O1  1.0  0.3407393104152222  0.16693640650764102  0.8728588212729345  Uiso  ?  O
O1  1.0  0.7750730624653441  0.1578554256528179  0.5831407482637262  Uiso  ?  O
Ce1  1.0  0.6980256815249105  0.16371985299899341  0.6575998867686442  Uiso  ?  Ce
O1  1.0  0.6320056599731264  0.16163101685853468  0.6776478182249599  Uiso  ?  O
O1  1.0  0.6568608516639212  0.16013031893788912  0.7139486330775349  Uiso  ?  O
O1  1.0  0.5352790128424411  0.16330196520009813  0.8446318040993328  Uiso  ?  O
O1  1.0  0.5587628368845442  0.16188058478692596  0.8815390236065226  Uiso  ?  O
Ce1  1.0  0.7461567279114832  0.16391960483766657  0.7285360789056942  Uiso  ?  Ce
O1  1.0  0.6802054952085483  0.1605543342642682  0.7452489509903935  Uiso  ?  O
O1  1.0  0.7038045352588936  0.15962110950970632  0.7831652720374138  Uiso  ?  O
Ce1  1.0  0.577928463506591  0.16716734168586658  0.7888778724710714  Uiso  ?  Ce
O1  1.0  0.7173383324217016  0.16544797142629122  0.8782325431986775  Uiso  ?  O
Ce1  1.0  0.6256805285025533  0.16656910799230645  0.8614067280136988  Uiso  ?  Ce
O1  1.0  0.1988440119787741  0.4191758762776236  0.1585477974579571  Uiso  ?  O
O1  1.0  0.21917739766182665  0.41630530010333366  0.19626124567326267  Uiso  ?  O
O1  1.0  0.16281836945659348  0.43060875557238976  0.18454062455954814  Uiso  ?  O
O1  1.0  0.184742246683049  0.4268249010584679  0.21982270886561553  Uiso  ?  O
O1  1.0  0.2103026572575824  0.4249401090037537  0.25375874200915294  Uiso  ?  O
O1  1.0  0.23203456012815316  0.42676311952070206  0.2888682892286052  Uiso  ?  O
O1  1.0  0.1780651548636078  0.43949763127859054  0.27827533900216117  Uiso  ?  O
O1  1.0  0.2011450139045171  0.4377142786217398  0.3107703560933436  Uiso  ?  O
O1  1.0  0.16669056720139844  0.447621214422312  0.33390229454977705  Uiso  ?  O
O1  1.0  0.3760590308134368  0.4227996042960421  0.18904805809863265  Uiso  ?  O
Ce1  1.0  0.30989677565722307  0.42042013246884335  0.2097194480328468  Uiso  ?  Ce
O1  1.0  0.3458237869894025  0.4328209569309778  0.214055286669563  Uiso  ?  O
O1  1.0  0.3126978716981371  0.4463524998269998  0.2374429095225431  Uiso  ?  O
Ce1  1.0  0.254402068749257  0.4327579964616997  0.19776986976209038  Uiso  ?  Ce
Ce1  1.0  0.24450892590209763  0.4409071416071117  0.2559921725773232  Uiso  ?  Ce
O1  1.0  0.28017666348434994  0.45781359696159973  0.2601965786686113  Uiso  ?  O
O1  1.0  0.25776080275112345  0.4245367911750448  0.3254776746445141  Uiso  ?  O
O1  1.0  0.28085465642537505  0.42343583106465305  0.3606869416259442  Uiso  ?  O
Ce1  1.0  0.1877004578497279  0.42281024929150784  0.34412819881500656  Uiso  ?  Ce
O1  1.0  0.2253535874065378  0.436399923744085  0.34559023563452285  Uiso  ?  O
O1  1.0  0.249610812887376  0.43305099239323225  0.3831211332688249  Uiso  ?  O
O1  1.0  0.19189344725834773  0.4463639778540689  0.3681257615116622  Uiso  ?  O
O1  1.0  0.21553070495133506  0.4457416294644473  0.40569207773157884  Uiso  ?  O
Ce1  1.0  0.18241841751906884  0.4314929674447056  0.40191080507799753  Uiso  ?  Ce
O1  1.0  0.1821036859506057  0.45283537054844153  0.42778540987440933  Uiso  ?  O
O1  1.0  0.4021342755983627  0.42301583901839834  0.22344647223874  Uiso  ?  O
O1  1.0  0.42509033417043074  0.42068160069107075  0.2622045732722048  Uiso  ?  O
Ce1  1.0  0.4010533437303423  0.44558458100865334  0.25265727678411287  Uiso  ?  Ce
Ce1  1.0  0.3593631270545554  0.41861947915705416  0.2813055191233933  Uiso  ?  Ce
O1  1.0  0.3698480135724097  0.4309357321141626  0.24835681475936772  Uiso  ?  O
O1  1.0  0.3934342470791579  0.4287616132909692  0.2828721987888553  Uiso  ?  O
O1  1.0  0.3377125955659355  0.44279341068821526  0.2720381891970014  Uiso  ?  O
O1  1.0  0.3597373201873374  0.44390574653690906  0.3054648368741785  Uiso  ?  O
Ce1  1.0  0.3008177810597714  0.43034363386750857  0.26639633695781945  Uiso  ?  Ce
Ce1  1.0  0.28962444264418774  0.43690244737980993  0.32547842511016983  Uiso  ?  Ce
O1  1.0  0.3000279842754091  0.45500986864102416  0.29572120780835637  Uiso  ?  O
O1  1.0  0.32579860502289787  0.45463663354963263  0.33273866659363927  Uiso  ?  O
O1  1.0  0.26602455749810283  0.4659806195006436  0.31958131936068973  Uiso  ?  O
O1  1.0  0.29037626935276667  0.46021197287778454  0.35083508117180806  Uiso  ?  O
Ce1  1.0  0.23266436690911396  0.4513426054435137  0.3160340390077727  Uiso  ?  Ce
Ce1  1.0  0.2243370790646266  0.46063612527630243  0.375819914013926  Uiso  ?  Ce
O1  1.0  0.254264736533273  0.4766738685322029  0.3753552428003403  Uiso  ?  O
O1  1.0  0.30426146546016786  0.4222893891399102  0.39518591907681305  Uiso  ?  O
O1  1.0  0.33116442996135403  0.42174275096981256  0.42861801898913815  Uiso  ?  O
Ce1  1.0  0.24118893283898588  0.416093742454501  0.41319892038104133  Uiso  ?  Ce
O1  1.0  0.27373753914733023  0.428912746667436  0.41774665583116966  Uiso  ?  O
O1  1.0  0.2374745666383852  0.44619808533845107  0.4408481323198506  Uiso  ?  O
Ce1  1.0  0.45894879173536307  0.4332605662121594  0.26482672840063093  Uiso  ?  Ce
Ce1  1.0  0.5183886284283779  0.42392067836588077  0.27515519125126786  Uiso  ?  Ce
O1  1.0  0.4512032292404817  0.41677262825683076  0.2972841844456996  Uiso  ?  O
O1  1.0  0.4722012974816711  0.41862722650787537  0.3281966680813447  Uiso  ?  O
Ce1  1.0  0.3914265932398498  0.4586135758713268  0.31299497630256234  Uiso  ?  Ce
Ce1  1.0  0.44806815747969786  0.4481621811594777  0.32172355777569467  Uiso  ?  Ce
O1  1.0  0.41706246170487865  0.43032032114460156  0.31861154843524553  Uiso  ?  O
O1  1.0  0.44092096612229814  0.4287824500903831  0.3542770439312769  Uiso  ?  O
O1  1.0  0.38334433343231333  0.4415663362648249  0.34148518921005666  Uiso  ?  O
O1  1.0  0.4076374247712771  0.43961729783359804  0.378845872907666  Uiso  ?  O
O1  1.0  0.4498797577031709  0.47041389403647405  0.3478647432148385  Uiso  ?  O
O1  1.0  0.4162091886632262  0.4806765796658932  0.37252924641120305  Uiso  ?  O
Ce1  1.0  0.35034666095110756  0.42511936562292474  0.3390574892686864  Uiso  ?  Ce
Ce1  1.0  0.3249859596020401  0.47832676815746006  0.3538658534054712  Uiso  ?  Ce
Ce1  1.0  0.3821834587364448  0.4665265734070987  0.3682811073373604  Uiso  ?  Ce
Ce1  1.0  0.33962568751911226  0.435279230001035  0.39646267771423704  Uiso  ?  Ce
O1  1.0  0.3499509948502254  0.4552485289580143  0.36418951254319654  Uiso  ?  O
O1  1.0  0.3710294247930987  0.4528434059490222  0.40198077059585824  Uiso  ?  O
O1  1.0  0.3152038239560868  0.4643195588681332  0.3877247037745913  Uiso  ?  O
O1  1.0  0.33777906145108416  0.4606067013989683  0.42469255118750204  Uiso  ?  O
Ce1  1.0  0.2848237903017157  0.44761207546995535  0.3845403510821001  Uiso  ?  Ce
Ce1  1.0  0.27365030231072646  0.45628388581270757  0.44644947810702484  Uiso  ?  Ce
O1  1.0  0.2837968784153528  0.47517634780492607  0.41306294582625874  Uiso  ?  O
O1  1.0  0.6326408275216634  0.426710984554985  0.3223265767304016  Uiso  ?  O
O1  1.0  0.6016724107839045  0.43766833051900605  0.3496364622643724  Uiso  ?  O
Ce1  1.0  0.5085567890067467  0.42909536669386966  0.3350404885012678  Uiso  ?  Ce
Ce1  1.0  0.5668048913016577  0.4207696221245106  0.34687996503450247  Uiso  ?  Ce
O1  1.0  0.4990293476796759  0.4191528235653298  0.37004800445436137  Uiso  ?  O
O1  1.0  0.5419948234931069  0.44746365557279777  0.339721696852281  Uiso  ?  O
O1  1.0  0.5656907045629601  0.44452430864485554  0.37398346442468583  Uiso  ?  O
O1  1.0  0.5096167413268072  0.45915335226127024  0.36072654383579894  Uiso  ?  O
O1  1.0  0.5324808468242744  0.4574565138337592  0.39404012894287155  Uiso  ?  O
Ce1  1.0  0.44219642018650723  0.45661954101819735  0.38266206149340887  Uiso  ?  Ce
Ce1  1.0  0.49875378769261974  0.4425022445875325  0.39424000232163714  Uiso  ?  Ce
O1  1.0  0.4636719991961842  0.4292666308598013  0.38903014709250594  Uiso  ?  O
O1  1.0  0.4890949500172664  0.4280064082700008  0.42388224105030264  Uiso  ?  O
O1  1.0  0.4301842324887594  0.4386310845054063  0.4109074649813728  Uiso  ?  O
O1  1.0  0.4546566367786554  0.4378997304973512  0.4500498374944925  Uiso  ?  O
O1  1.0  0.4741364678612785  0.4710030806497895  0.3831352920847239  Uiso  ?  O
O1  1.0  0.49946172951058815  0.46850562428603093  0.4161859987742669  Uiso  ?  O
O1  1.0  0.4388442020990432  0.4830773877698449  0.40777694349386845  Uiso  ?  O
Ce1  1.0  0.3958726240071776  0.4239192730534813  0.41119168127560585  Uiso  ?  Ce
Ce1  1.0  0.3733295475204793  0.48103357850519496  0.42511996878539476  Uiso  ?  Ce
Ce1  1.0  0.4287663586630324  0.46768570971214984  0.4368599070289631  Uiso  ?  Ce
O1  1.0  0.6574556978361682  0.42222930516296003  0.35984750998717874  Uiso  ?  O
O1  1.0  0.6807695258439904  0.4187892821812334  0.39576212167267444  Uiso  ?  O
O1  1.0  0.6234779179638843  0.4361639977614744  0.383030989381034  Uiso  ?  O
O1  1.0  0.6475777225857949  0.435267035999568  0.4179262158261342  Uiso  ?  O
Ce1  1.0  0.5537508166092127  0.4277083494389042  0.40489041085919286  Uiso  ?  Ce
Ce1  1.0  0.6130717394663907  0.4173778953367242  0.4140444111946692  Uiso  ?  Ce
O1  1.0  0.5868886796578048  0.44318540910854626  0.40669469362316446  Uiso  ?  O
O1  1.0  0.6124953185812253  0.44345646178616294  0.44297594498805537  Uiso  ?  O
O1  1.0  0.5567736177574122  0.4540358264941327  0.4297380634076515  Uiso  ?  O
O1  1.0  0.5233320934334407  0.466633594454743  0.456096305657208  Uiso  ?  O
Ce1  1.0  0.5309955457255202  0.4838588851892881  0.4263412956361676  Uiso  ?  Ce
O1  1.0  0.7033142731832948  0.4207528523941588  0.4318488779312224  Uiso  ?  O
O1  1.0  0.7287526417135332  0.4214781691484092  0.46412090081229684  Uiso  ?  O
O1  1.0  0.6709507528438662  0.4320590392517088  0.45231158447331193  Uiso  ?  O
