data_global
_audit_creation_method 'Generated by Python Script'

_symmetry_space_group_name_H-M 'P 1'
_symmetry_Int_Tables_number 1
_symmetry_cell_setting triclinic
loop_
_symmetry_equiv_pos_as_xyz
  'x, y, z'

_cell_length_a    64.29663248284001
_cell_length_b    64.29663248284001
_cell_length_c    64.29663248284001
_cell_angle_alpha 90.0
_cell_angle_beta  90.0
_cell_angle_gamma 90.0

loop_
_atom_site_label
_atom_site_occupancy
_atom_site_fract_x
_atom_site_fract_y
_atom_site_fract_z
_atom_site_adp_type
_atom_site_U_iso_or_equiv
_atom_site_type_symbol
Pt1  1.0  0.4880671808706659  0.5170718633512594  0.4778103430801093  Uiso  ?  Pt
Pt1  1.0  0.4751285894966037  0.4846199556338583  0.5015522378904655  Uiso  ?  Pt
Pt1  1.0  0.4866175632038173  0.518466348806329  0.5196876468147907  Uiso  ?  Pt
Pt1  1.0  0.4733328775571308  0.48102531307712837  0.4552428164097257  Uiso  ?  Pt
Pt1  1.0  0.511051754051945  0.4812564025308306  0.4361866394336945  Uiso  ?  Pt
Pt1  1.0  0.5117937609526243  0.48051709731689435  0.47982569779413925  Uiso  ?  Pt
Pt1  1.0  0.5244777107883911  0.5214702367205387  0.49905292846373583  Uiso  ?  Pt
Pt1  1.0  0.5234063726619558  0.5185341650032673  0.4571933424393016  Uiso  ?  Pt
Pt1  1.0  0.5617934952390004  0.5200211664757088  0.43488985815902886  Uiso  ?  Pt
Pt1  1.0  0.5500474666874942  0.4841900649025262  0.4577052725960913  Uiso  ?  Pt
Pt1  1.0  0.5629002087251429  0.5166542658139935  0.47846975309272183  Uiso  ?  Pt
Pt1  1.0  0.5466331619062728  0.4863543684296361  0.4136746272198241  Uiso  ?  Pt
Pt1  1.0  0.5873364453941806  0.48340896598276717  0.433810967161158  Uiso  ?  Pt
Pt1  1.0  0.5976314064465885  0.5161150621958142  0.45504539723856563  Uiso  ?  Pt
Pt1  1.0  0.4758743230019685  0.4817811335791694  0.5444227272011898  Uiso  ?  Pt
Pt1  1.0  0.512434062417825  0.4833742985511639  0.5194132544777945  Uiso  ?  Pt
Pt1  1.0  0.5114849618520642  0.48164486733870726  0.5655003124679931  Uiso  ?  Pt
Pt1  1.0  0.5228198836753205  0.5175378442286275  0.5423390595576836  Uiso  ?  Pt
Pt1  1.0  0.5638001862083395  0.5183684216883313  0.5232596309552745  Uiso  ?  Pt
Pt1  1.0  0.5475114612914973  0.4805096380181705  0.541403433476734  Uiso  ?  Pt
Pt1  1.0  0.56134789918007  0.5181774086328022  0.562657369926976  Uiso  ?  Pt
Pt1  1.0  0.5475321607561204  0.482376507052258  0.5009367420395509  Uiso  ?  Pt
Pt1  1.0  0.5873599015458039  0.48147860370081635  0.4781300347806646  Uiso  ?  Pt
Pt1  1.0  0.5871729998097446  0.47992022223982317  0.5200613916754483  Uiso  ?  Pt
Pt1  1.0  0.5979103344233585  0.5166133768035952  0.5439320445692415  Uiso  ?  Pt
Pt1  1.0  0.5987814362089471  0.5170643054965737  0.4992776488405676  Uiso  ?  Pt
Pt1  1.0  0.6216405377702053  0.4839770965300497  0.500824570047685  Uiso  ?  Pt
Pt1  1.0  0.625767859822177  0.48464041933291463  0.4590776716756358  Uiso  ?  Pt
Pt1  1.0  0.549681950192976  0.4807877331618903  0.5849148391011814  Uiso  ?  Pt
Pt1  1.0  0.5868614300858168  0.4848539822405646  0.5614747657338376  Uiso  ?  Pt
Pt1  1.0  0.6244706352733823  0.48236031798299916  0.5427971681570789  Uiso  ?  Pt
Pt1  1.0  0.5010147476212706  0.555956765969976  0.5006443749817109  Uiso  ?  Pt
Pt1  1.0  0.5354112592447822  0.5507302499593647  0.4789275247726267  Uiso  ?  Pt
Pt1  1.0  0.5392025136374695  0.5521215489152492  0.5218821469056318  Uiso  ?  Pt
Pt1  1.0  0.5735388011250417  0.5497675366855536  0.5020847342646915  Uiso  ?  Pt
Pt1  1.0  0.5744785227142085  0.5529312727884088  0.4548208141875435  Uiso  ?  Pt
Pt1  1.0  0.5740731833637551  0.5520996272528854  0.5432308216633673  Uiso  ?  Pt
O1  1.0  0.23751477730972406  0.3714524024457759  0.6447774836739013  Uiso  ?  O
Ce1  1.0  0.22987067994277074  0.37111342853618334  0.6787822614668306  Uiso  ?  Ce
O1  1.0  0.2602802851312289  0.3752184226384213  0.6974053626101561  Uiso  ?  O
O1  1.0  0.2497139921741251  0.3932130090130087  0.47070920258614096  Uiso  ?  O
O1  1.0  0.23582717268390416  0.3972148051949085  0.5439601015396363  Uiso  ?  O
O1  1.0  0.27362348456344876  0.40029525671437266  0.5271604110688012  Uiso  ?  O
O1  1.0  0.29619603148722806  0.40321732653965486  0.5783840556379176  Uiso  ?  O
O1  1.0  0.27249256266346195  0.3753026462683341  0.6248186697508057  Uiso  ?  O
O1  1.0  0.31333950057963644  0.3783895548726556  0.6086546825217501  Uiso  ?  O
Ce1  1.0  0.2822023971739678  0.37121737629266316  0.5907204594159613  Uiso  ?  Ce
O1  1.0  0.2482091656302502  0.37084115785899974  0.571875649851182  Uiso  ?  O
O1  1.0  0.28704379590110907  0.3721637337023197  0.5553174622610467  Uiso  ?  O
O1  1.0  0.36317955471213936  0.3889572384410001  0.7142948661443044  Uiso  ?  O
Ce1  1.0  0.3292650220459745  0.38372448764804473  0.6995271238759471  Uiso  ?  Ce
Ce1  1.0  0.30953934078047984  0.3767936192332944  0.6448586159763267  Uiso  ?  Ce
O1  1.0  0.29909801317929247  0.37853938838443424  0.6813478870839927  Uiso  ?  O
O1  1.0  0.33706402029073684  0.3824657588642966  0.661402500882539  Uiso  ?  O
O1  1.0  0.4303961954881492  0.36842409163612183  0.8540536344607973  Uiso  ?  O
O1  1.0  0.35967831895954033  0.4390022543201833  0.5175312232843571  Uiso  ?  O
Ce1  1.0  0.28033292872959037  0.40130988467945816  0.4884703524313641  Uiso  ?  Ce
Ce1  1.0  0.3275532762226859  0.4314193260175094  0.5010979486556456  Uiso  ?  Ce
O1  1.0  0.33457824493116783  0.432404134159591  0.46505142006931927  Uiso  ?  O
O1  1.0  0.28814798288033877  0.39629274658348806  0.45213199232784906  Uiso  ?  O
O1  1.0  0.3243598296699648  0.40193547727817086  0.43583124605511697  Uiso  ?  O
O1  1.0  0.31062922883346195  0.4041150238782053  0.5098746035276569  Uiso  ?  O
O1  1.0  0.349518668134032  0.4068147327437486  0.4906827200697501  Uiso  ?  O
O1  1.0  0.30199095891473826  0.37026072418247613  0.4827393588148726  Uiso  ?  O
O1  1.0  0.3429671873303739  0.3762421641116043  0.46427548122051504  Uiso  ?  O
Ce1  1.0  0.3099761512770124  0.36997965400143906  0.44906343850357217  Uiso  ?  Ce
O1  1.0  0.31612347354812925  0.370068030336129  0.41023907954344807  Uiso  ?  O
Ce1  1.0  0.3287105945542784  0.4075545301714637  0.5960057524053158  Uiso  ?  Ce
O1  1.0  0.33685537276765354  0.40867639849190057  0.5645291217716368  Uiso  ?  O
O1  1.0  0.37550536431183296  0.41343554458710946  0.5452349201080016  Uiso  ?  O
O1  1.0  0.3628329253348561  0.4126285381682635  0.6193676162274455  Uiso  ?  O
O1  1.0  0.3990124979310496  0.41570029051046936  0.5970540854919368  Uiso  ?  O
O1  1.0  0.3531847293376583  0.379235911383083  0.5877488998615776  Uiso  ?  O
O1  1.0  0.39130815272626424  0.3816622230527287  0.5741917249486489  Uiso  ?  O
Ce1  1.0  0.3055318898622116  0.4059466596864722  0.5486460662251109  Uiso  ?  Ce
Ce1  1.0  0.355797580546675  0.3799579547533961  0.5532449879299758  Uiso  ?  Ce
Ce1  1.0  0.33359141626392685  0.37782432075238087  0.5008608402753557  Uiso  ?  Ce
O1  1.0  0.32470814825772165  0.37536258822237245  0.5392853528108477  Uiso  ?  O
O1  1.0  0.36588517434375  0.3784645578598579  0.5195814313026124  Uiso  ?  O
O1  1.0  0.42152550384041304  0.4211403019107899  0.655412201491011  Uiso  ?  O
O1  1.0  0.39902802924934205  0.38856052237533417  0.698988707783742  Uiso  ?  O
O1  1.0  0.43798438588612815  0.39292363995301494  0.6802202958026315  Uiso  ?  O
Ce1  1.0  0.40483322765672536  0.3895449359505609  0.6611739346957409  Uiso  ?  Ce
Ce1  1.0  0.3813241266405085  0.3836251810500912  0.6101500208733757  Uiso  ?  Ce
O1  1.0  0.3735298005371805  0.385173083948342  0.6445363214513715  Uiso  ?  O
O1  1.0  0.4122592131002492  0.3890723405205016  0.6277637645944809  Uiso  ?  O
Ce1  1.0  0.4573360778813088  0.39970380334916783  0.7704301879785251  Uiso  ?  Ce
Ce1  1.0  0.4341094774571585  0.3973613382739454  0.7171829481481609  Uiso  ?  Ce
O1  1.0  0.42485368479948793  0.39547195849843303  0.7518490697010646  Uiso  ?  O
O1  1.0  0.46228234046537103  0.3972782144744709  0.7380306036023747  Uiso  ?  O
O1  1.0  0.47795942732183583  0.3736126763044933  0.7640307559505218  Uiso  ?  O
Ce1  1.0  0.45958876870805276  0.3717112132684826  0.8694862308433383  Uiso  ?  Ce
O1  1.0  0.46497299013829096  0.373853820589262  0.8333119800220717  Uiso  ?  O
O1  1.0  0.5001585608308013  0.3758390394016905  0.8162818678627697  Uiso  ?  O
Ce1  1.0  0.4326371291452343  0.3696233330300634  0.8193030562611368  Uiso  ?  Ce
O1  1.0  0.38536140817719616  0.4340179627188205  0.37251585117919056  Uiso  ?  O
O1  1.0  0.39770083746439816  0.44114959866008147  0.5017123184026978  Uiso  ?  O
O1  1.0  0.4340381062055796  0.4442555401213095  0.48180713185107693  Uiso  ?  O
Ce1  1.0  0.3580952556843452  0.40706692952805784  0.45751856019963805  Uiso  ?  Ce
Ce1  1.0  0.4028966968683674  0.43950331422924127  0.4629593638154335  Uiso  ?  Ce
Ce1  1.0  0.37934446943675126  0.43608302648736397  0.41106993758068144  Uiso  ?  Ce
O1  1.0  0.3726504211015563  0.4363300079078393  0.44685415844674675  Uiso  ?  O
O1  1.0  0.40846474150316897  0.4409949244772246  0.4263557167462417  Uiso  ?  O
O1  1.0  0.36505047222139503  0.4051260047773962  0.4218925774700707  Uiso  ?  O
O1  1.0  0.40146546049266085  0.41086342547008126  0.3999255146092284  Uiso  ?  O
O1  1.0  0.3870245637371097  0.4105766009366636  0.4753498496056373  Uiso  ?  O
O1  1.0  0.4253602078355589  0.41279224038558204  0.45529237696721314  Uiso  ?  O
O1  1.0  0.38024913507291846  0.37663052228917104  0.4472958420480895  Uiso  ?  O
O1  1.0  0.4161823220333145  0.381913015452044  0.42939612166431357  Uiso  ?  O
Ce1  1.0  0.3325982750478171  0.40127196945081417  0.40057088384755496  Uiso  ?  Ce
Ce1  1.0  0.38290788254979446  0.37582859539317176  0.414572669979998  Uiso  ?  Ce
Ce1  1.0  0.36088442602277276  0.37470400394807346  0.3590987794056108  Uiso  ?  Ce
O1  1.0  0.3533245300528525  0.37163028784966023  0.3930338899837353  Uiso  ?  O
O1  1.0  0.3929369454681599  0.37668927529219376  0.375185973083918  Uiso  ?  O
Ce1  1.0  0.40192042585867693  0.41415580513008415  0.5636806650454536  Uiso  ?  Ce
Ce1  1.0  0.4259349882168423  0.4467332085998141  0.5179552164061306  Uiso  ?  Ce
O1  1.0  0.4200461417501402  0.44434249757423666  0.5537231982757251  Uiso  ?  O
O1  1.0  0.4586763869399783  0.45167664602568297  0.537665818110669  Uiso  ?  O
O1  1.0  0.4132755428345791  0.4160708834296949  0.5293219433679978  Uiso  ?  O
O1  1.0  0.4507144201334066  0.41697502546943577  0.5083160220788667  Uiso  ?  O
O1  1.0  0.43568452900604865  0.42055144433207814  0.5811567959530558  Uiso  ?  O
O1  1.0  0.4743222848469099  0.42226091689692097  0.5629714312918188  Uiso  ?  O
O1  1.0  0.42478805947237314  0.3883372116363352  0.5567669468368533  Uiso  ?  O
O1  1.0  0.4665779814974851  0.3896681907963541  0.5405898822015412  Uiso  ?  O
Ce1  1.0  0.3813012708633287  0.4117276221772384  0.511796161589649  Uiso  ?  Ce
Ce1  1.0  0.43180315432426847  0.3880164927922629  0.5189118763911509  Uiso  ?  Ce
Ce1  1.0  0.40859777272464703  0.3836010012237533  0.46745496084058696  Uiso  ?  Ce
O1  1.0  0.4024533107143158  0.3812609955395159  0.5029233054111071  Uiso  ?  O
O1  1.0  0.44130039889712147  0.38765853185999705  0.4847536417244628  Uiso  ?  O
Ce1  1.0  0.4537078545530089  0.4271859997347881  0.6711825845951919  Uiso  ?  Ce
O1  1.0  0.4637598421926094  0.4241365519695682  0.6351858882269321  Uiso  ?  O
O1  1.0  0.49743029676759776  0.42876504967967416  0.6182471107735651  Uiso  ?  O
O1  1.0  0.4872298646225122  0.4302973587049523  0.6918512757400425  Uiso  ?  O
O1  1.0  0.5231226442901118  0.43462199585125383  0.6725094552051679  Uiso  ?  O
O1  1.0  0.4767576665642552  0.39747871164037074  0.6626150700017623  Uiso  ?  O
O1  1.0  0.5144035834980764  0.40046364094182074  0.6442152212901363  Uiso  ?  O
Ce1  1.0  0.4282424279954507  0.4225435656853858  0.6226226374696036  Uiso  ?  Ce
Ce1  1.0  0.48361273293198864  0.397074153111246  0.6310268299160788  Uiso  ?  Ce
Ce1  1.0  0.45815661233268146  0.39205576873557324  0.5753251745531353  Uiso  ?  Ce
O1  1.0  0.45062206982932873  0.3921830335520448  0.6096434524119783  Uiso  ?  O
O1  1.0  0.4911763103935509  0.3964474678534898  0.5943727219613704  Uiso  ?  O
O1  1.0  0.5045445882017036  0.37098305085010447  0.6217929341927717  Uiso  ?  O
O1  1.0  0.5285703122292659  0.4067717565948711  0.7708412114711759  Uiso  ?  O
O1  1.0  0.5605407737558457  0.4089592033060356  0.7547382423706009  Uiso  ?  O
Ce1  1.0  0.4845685263352089  0.37270611729772746  0.7280894538514319  Uiso  ?  Ce
Ce1  1.0  0.5337354768955549  0.4086119250786192  0.7369076182924839  Uiso  ?  Ce
Ce1  1.0  0.5051430922980596  0.4017690406044799  0.6815998614512547  Uiso  ?  Ce
O1  1.0  0.5015418802607204  0.4027873934890921  0.719664466235863  Uiso  ?  O
O1  1.0  0.5377696139120054  0.4046895214797836  0.7004239521456886  Uiso  ?  O
O1  1.0  0.491343269176365  0.3689556733413583  0.6946785092939909  Uiso  ?  O
O1  1.0  0.5317972790771786  0.37546679908876035  0.6735686216253035  Uiso  ?  O
O1  1.0  0.5155639849479007  0.37588950398085735  0.7463888658647133  Uiso  ?  O
O1  1.0  0.5538221457713839  0.37694863596292  0.7284148290911122  Uiso  ?  O
Ce1  1.0  0.5365863540978664  0.3805994475851485  0.8355870192254247  Uiso  ?  Ce
O1  1.0  0.5412045499491127  0.3784550381385849  0.7997869370661821  Uiso  ?  O
O1  1.0  0.5781406064558331  0.38218649394257903  0.7800601491030535  Uiso  ?  O
Ce1  1.0  0.5114554328445636  0.37613210352439125  0.7828512849733854  Uiso  ?  Ce
O1  1.0  0.4252271003477868  0.4391405981535766  0.3568659726809901  Uiso  ?  O
O1  1.0  0.46496921909975425  0.4422617911594773  0.3417628039553714  Uiso  ?  O
O1  1.0  0.41742331048652104  0.4053994335405877  0.3314652944892582  Uiso  ?  O
O1  1.0  0.4534443667393893  0.4089040945539989  0.31374788656502334  Uiso  ?  O
O1  1.0  0.47389096731939795  0.44780448874749695  0.467784954269321  Uiso  ?  O
Ce1  1.0  0.43180910076045503  0.41464775136496024  0.4180657582075017  Uiso  ?  Ce
Ce1  1.0  0.477976366829461  0.44598568926926996  0.4265973868433338  Uiso  ?  Ce
Ce1  1.0  0.4539196788040041  0.44107627066872424  0.3757976739897201  Uiso  ?  Ce
O1  1.0  0.44886575830879144  0.4467005947383666  0.41070992627963854  Uiso  ?  O
O1  1.0  0.4840194195841922  0.44633568741679985  0.3888000070244739  Uiso  ?  O
O1  1.0  0.4366525212016595  0.4132394395165638  0.3826523256168975  Uiso  ?  O
O1  1.0  0.47863282214425684  0.4181306122916597  0.36794541571062644  Uiso  ?  O
O1  1.0  0.4605420451259792  0.41601017962596987  0.4388833425668749  Uiso  ?  O
O1  1.0  0.5009698658956139  0.420509302696571  0.4232668700955619  Uiso  ?  O
O1  1.0  0.4560086340542297  0.38503723152104774  0.41346291946000013  Uiso  ?  O
O1  1.0  0.49321563743045765  0.3884149556303317  0.39429035078966085  Uiso  ?  O
Ce1  1.0  0.40871246671149214  0.40974574910381345  0.3659065282543617  Uiso  ?  Ce
Ce1  1.0  0.4607118580202656  0.3860744020369108  0.37489769065351475  Uiso  ?  Ce
Ce1  1.0  0.43621884955019763  0.3767442156654256  0.3229798775285958  Uiso  ?  Ce
O1  1.0  0.4349196033438201  0.3810599458626888  0.35926247466295713  Uiso  ?  O
O1  1.0  0.46661315513505375  0.3835695888242486  0.34129718078374416  Uiso  ?  O
Ce1  1.0  0.47961165622841434  0.424344623693909  0.5277280227271813  Uiso  ?  Ce
O1  1.0  0.4875736487909144  0.42088603073530423  0.49349008358258584  Uiso  ?  O
O1  1.0  0.5263900373986011  0.4283093528491721  0.47711084973284307  Uiso  ?  O
O1  1.0  0.5104196924772713  0.4268776281965688  0.5461547323129445  Uiso  ?  O
O1  1.0  0.551749656215095  0.43351115096801773  0.529292393461136  Uiso  ?  O
O1  1.0  0.5067307730951801  0.39387760057886206  0.5203719683718467  Uiso  ?  O
O1  1.0  0.5408203819841644  0.39783780062974117  0.5032800429000751  Uiso  ?  O
Ce1  1.0  0.45917411574451106  0.4187431938299343  0.47662814982542384  Uiso  ?  Ce
Ce1  1.0  0.5129262283424649  0.39254608014199227  0.4864782204988276  Uiso  ?  Ce
Ce1  1.0  0.48636605423060847  0.38941428350997265  0.4309720391727821  Uiso  ?  Ce
O1  1.0  0.48003980274728664  0.3891063124348809  0.46541223503497264  Uiso  ?  O
O1  1.0  0.5175514098630898  0.39423314545304283  0.44804631252160665  Uiso  ?  O
Ce1  1.0  0.5299415047021103  0.4313554858737212  0.6393138848947709  Uiso  ?  Ce
O1  1.0  0.5385923277251186  0.43191755523291875  0.6018361635795421  Uiso  ?  O
O1  1.0  0.5756570813422136  0.4342875491755792  0.5838758323245449  Uiso  ?  O
O1  1.0  0.5616998777916845  0.4368581754886375  0.6560553152618647  Uiso  ?  O
O1  1.0  0.600797087079495  0.44021971812412714  0.6365825921302831  Uiso  ?  O
O1  1.0  0.5549962339124286  0.404280506316687  0.6278295886518599  Uiso  ?  O
O1  1.0  0.5885195869105645  0.4062436856286517  0.6139431215928577  Uiso  ?  O
Ce1  1.0  0.5027978682991892  0.42455204199545055  0.5795230529727686  Uiso  ?  Ce
Ce1  1.0  0.5135540603659696  0.36935351198169486  0.5863315189956223  Uiso  ?  Ce
Ce1  1.0  0.5609627460612407  0.4033730014630713  0.592588647759751  Uiso  ?  Ce
Ce1  1.0  0.5326744303123332  0.39941380450463576  0.5411427706350336  Uiso  ?  Ce
O1  1.0  0.5311551855216331  0.39948546552573033  0.5727123468638391  Uiso  ?  O
O1  1.0  0.5663094386504491  0.40143003928627535  0.5583537471356979  Uiso  ?  O
O1  1.0  0.5564144849320343  0.3717169667028094  0.5316760628218872  Uiso  ?  O
O1  1.0  0.546315435039932  0.372340007659753  0.6011264982878818  Uiso  ?  O
O1  1.0  0.5784738228362104  0.37414660384582493  0.5852275350057807  Uiso  ?  O
O1  1.0  0.6025915424143508  0.41258913430284494  0.7401768072257708  Uiso  ?  O
O1  1.0  0.6389227933240302  0.41790363577568457  0.7205500120721215  Uiso  ?  O
Ce1  1.0  0.5614850600725465  0.3820138310194754  0.6956880886189047  Uiso  ?  Ce
Ce1  1.0  0.6081377753187335  0.4102007216804842  0.7004776672676484  Uiso  ?  Ce
Ce1  1.0  0.5842109018656454  0.406374444431193  0.6469138364307667  Uiso  ?  Ce
O1  1.0  0.5773576041649802  0.4078370531145006  0.682295479412305  Uiso  ?  O
O1  1.0  0.6153169466474553  0.4102544148532514  0.6658091774598855  Uiso  ?  O
O1  1.0  0.5678965109388964  0.37872061057840106  0.6569705806006082  Uiso  ?  O
O1  1.0  0.6047278277273872  0.38235042850158196  0.6403149882425874  Uiso  ?  O
O1  1.0  0.5935363860433753  0.380833203011285  0.7117974765758236  Uiso  ?  O
O1  1.0  0.6302532896631983  0.3833933330627151  0.6930978542357803  Uiso  ?  O
Ce1  1.0  0.5369875538581497  0.3734313138883659  0.638909646718868  Uiso  ?  Ce
Ce1  1.0  0.608599434603733  0.3885610723733041  0.79743257563608  Uiso  ?  Ce
O1  1.0  0.6169258805501628  0.38686066951604164  0.7675761917964994  Uiso  ?  O
O1  1.0  0.657102563740715  0.38984718721317085  0.7487839188530107  Uiso  ?  O
Ce1  1.0  0.585289781375133  0.3793351303088166  0.7471756187690197  Uiso  ?  Ce
O1  1.0  0.5017192370998015  0.44876510386678553  0.32142790398930804  Uiso  ?  O
O1  1.0  0.5376301575367268  0.44957525846075674  0.30367334602364193  Uiso  ?  O
Ce1  1.0  0.5092509093832689  0.44588945679939546  0.2867214760890786  Uiso  ?  Ce
O1  1.0  0.4914552005851783  0.4170120124579213  0.29745503231330306  Uiso  ?  O
O1  1.0  0.5301455554079987  0.41593874133788056  0.27624023929383607  Uiso  ?  O
O1  1.0  0.4831122293958585  0.3833918699945122  0.2699992929711663  Uiso  ?  O
O1  1.0  0.5225823644077059  0.38733226249782843  0.2504444269085175  Uiso  ?  O
Ce1  1.0  0.5082458711012291  0.4195624981051705  0.3858816356144632  Uiso  ?  Ce
O1  1.0  0.517466731052314  0.423780376679845  0.34887094387019063  Uiso  ?  O
O1  1.0  0.5539232584894849  0.4208513226953754  0.3329268853187777  Uiso  ?  O
O1  1.0  0.5361808623043081  0.4239366803092808  0.4053489828624992  Uiso  ?  O
O1  1.0  0.5803292897016109  0.42930597343303484  0.3864237122972086  Uiso  ?  O
O1  1.0  0.5324334194613679  0.39183331769725627  0.37923604115795795  Uiso  ?  O
O1  1.0  0.5709453455039183  0.39698973289133255  0.36183708905505657  Uiso  ?  O
Ce1  1.0  0.48436173213987366  0.4189606932495382  0.3329017081114199  Uiso  ?  Ce
Ce1  1.0  0.5386830885844157  0.3924058586289095  0.34032783629600927  Uiso  ?  Ce
Ce1  1.0  0.512924521166212  0.3866817950755214  0.2893929274453487  Uiso  ?  Ce
O1  1.0  0.5062959982267613  0.38698252822823803  0.3208173975906123  Uiso  ?  O
O1  1.0  0.5455454005543859  0.39418913437245157  0.30844550733382514  Uiso  ?  O
Ce1  1.0  0.5563116686428441  0.42900840846088945  0.4943373534173163  Uiso  ?  Ce
O1  1.0  0.5647723602507146  0.4288532246454973  0.4575307150699666  Uiso  ?  O
O1  1.0  0.6039385923967083  0.4336792221223967  0.43879360169733195  Uiso  ?  O
O1  1.0  0.5893823044754484  0.43259316431926614  0.5117849391862872  Uiso  ?  O
O1  1.0  0.6280516044148758  0.43532785183465444  0.49148222538442315  Uiso  ?  O
O1  1.0  0.579517470459277  0.4016178953157627  0.4877238316177705  Uiso  ?  O
O1  1.0  0.6164433795968967  0.4038808136510157  0.4681061919640516  Uiso  ?  O
Ce1  1.0  0.534003482735017  0.42379850921333884  0.43855589525379207  Uiso  ?  Ce
Ce1  1.0  0.5875196101723351  0.39969698273732385  0.44882891435370226  Uiso  ?  Ce
Ce1  1.0  0.5641796647842039  0.39487615225312767  0.39477339368551223  Uiso  ?  Ce
O1  1.0  0.5590003742825947  0.397605885474726  0.43230219827340927  Uiso  ?  O
O1  1.0  0.5968253394420879  0.4001641842019467  0.41589611155916545  Uiso  ?  O
O1  1.0  0.5842868262218557  0.36829419666492663  0.3879318037109567  Uiso  ?  O
O1  1.0  0.5739309518253148  0.36906283216084135  0.4591788712020958  Uiso  ?  O
O1  1.0  0.6088151728001032  0.3752712953490102  0.4433981708476245  Uiso  ?  O
Ce1  1.0  0.6037558513078379  0.43931667489255627  0.6053859818472238  Uiso  ?  Ce
O1  1.0  0.6161828694315209  0.43880276671658613  0.566477901528324  Uiso  ?  O
O1  1.0  0.6522875548473147  0.44168439459829795  0.5453338926098789  Uiso  ?  O
O1  1.0  0.6387412968917799  0.4430768664197398  0.6161805517802508  Uiso  ?  O
O1  1.0  0.6295533043493331  0.4090445180304736  0.5931615360188928  Uiso  ?  O
O1  1.0  0.6672083862036987  0.4137785552518813  0.5772609444589458  Uiso  ?  O
Ce1  1.0  0.5836801113263059  0.43546156613395026  0.5434592284338808  Uiso  ?  Ce
Ce1  1.0  0.5887716151322466  0.3777053129459145  0.5535197086924605  Uiso  ?  Ce
Ce1  1.0  0.6323440098764262  0.41384691153449765  0.5595190008625404  Uiso  ?  Ce
Ce1  1.0  0.6100933361408789  0.4042040308402505  0.5051931044149011  Uiso  ?  Ce
O1  1.0  0.6055582960892648  0.4043200978017867  0.5415491699490472  Uiso  ?  O
O1  1.0  0.6460407330381326  0.4095534726492347  0.5229670123785398  Uiso  ?  O
O1  1.0  0.5928328778335277  0.3727674134584057  0.5141384582317752  Uiso  ?  O
O1  1.0  0.6309170667177437  0.37895096880849977  0.4963139662048756  Uiso  ?  O
O1  1.0  0.6175370311115228  0.37975580222103833  0.5689825316449875  Uiso  ?  O
O1  1.0  0.6581945087688824  0.3828484639897705  0.5512487210769054  Uiso  ?  O
Ce1  1.0  0.56406731290908  0.3701280231369167  0.49819274644848954  Uiso  ?  Ce
Ce1  1.0  0.6366883586140233  0.38540765821818385  0.6579513452926609  Uiso  ?  Ce
Ce1  1.0  0.6575675341775484  0.41588430796856546  0.6148310274467825  Uiso  ?  Ce
O1  1.0  0.6536584106576586  0.4153831513617037  0.6486854105620586  Uiso  ?  O
O1  1.0  0.6452375745233159  0.38493992161589435  0.6177426246754761  Uiso  ?  O
O1  1.0  0.6840930340286902  0.38964740355050637  0.6021798506083097  Uiso  ?  O
O1  1.0  0.6666174607553036  0.38762617656872445  0.6752448830250597  Uiso  ?  O
Ce1  1.0  0.6133298519476472  0.3806994958503104  0.6040470649638926  Uiso  ?  Ce
O1  1.0  0.6920574890847755  0.3937863839353671  0.7316228329275406  Uiso  ?  O
Ce1  1.0  0.6624437947234966  0.3876052077593855  0.7125420260819764  Uiso  ?  Ce
Ce1  1.0  0.5370175356460599  0.4191641788677925  0.24340783912872946  Uiso  ?  Ce
O1  1.0  0.5658126397248899  0.4231974832157921  0.26150067185754305  Uiso  ?  O
O1  1.0  0.6056031641252237  0.4280954423384965  0.24083950324682094  Uiso  ?  O
O1  1.0  0.5575249629616302  0.38921996505749423  0.23581768417639065  Uiso  ?  O
O1  1.0  0.594289301159308  0.3949054480206396  0.21746003175191467  Uiso  ?  O
Ce1  1.0  0.5651041219339471  0.3893282648982902  0.19736727789068642  Uiso  ?  Ce
Ce1  1.0  0.5841165234329226  0.4264298285508968  0.350665875818299  Uiso  ?  Ce
O1  1.0  0.593910202868798  0.4272846575618824  0.31372389829411107  Uiso  ?  O
O1  1.0  0.633372160527357  0.42937658038081694  0.2958920155758281  Uiso  ?  O
O1  1.0  0.6167952775111741  0.42939642726345095  0.3712437281924586  Uiso  ?  O
O1  1.0  0.6549560921962057  0.435104382772068  0.3503462629376612  Uiso  ?  O
O1  1.0  0.6082150732651864  0.40178462572577817  0.3433677826326379  Uiso  ?  O
O1  1.0  0.6440840849720623  0.40181707166975966  0.3249325085071563  Uiso  ?  O
Ce1  1.0  0.5605690656231357  0.4220926075841174  0.2985837915055296  Uiso  ?  Ce
Ce1  1.0  0.6134710672229317  0.4003993450616727  0.3046257893045237  Uiso  ?  Ce
Ce1  1.0  0.5902568881778523  0.39517380252235257  0.25235239526506603  Uiso  ?  Ce
O1  1.0  0.5826489727460675  0.3956715515391921  0.2890490089061194  Uiso  ?  O
O1  1.0  0.6222530130947322  0.3969591273297826  0.27059773453807495  Uiso  ?  O
O1  1.0  0.635124856419102  0.3739707336653518  0.29909424554634206  Uiso  ?  O
Ce1  1.0  0.6330320064427153  0.43543175948796464  0.45923252818530474  Uiso  ?  Ce
O1  1.0  0.6433707841563281  0.4361899463092676  0.42267800044200793  Uiso  ?  O
O1  1.0  0.6772955770169843  0.4403329587548576  0.4031243286415051  Uiso  ?  O
O1  1.0  0.6666677309530477  0.44128023121717064  0.47664511840596907  Uiso  ?  O
O1  1.0  0.6576619369933943  0.40968356455060945  0.4492621272766659  Uiso  ?  O
O1  1.0  0.6960400760630396  0.41125084503669396  0.431127509646686  Uiso  ?  O
Ce1  1.0  0.6102513102053916  0.4319831357352348  0.40455480061582344  Uiso  ?  Ce
Ce1  1.0  0.6160043765143773  0.3699835892093672  0.4078242106263877  Uiso  ?  Ce
Ce1  1.0  0.6634908581557242  0.4063349802939671  0.41576927440951666  Uiso  ?  Ce
Ce1  1.0  0.6370924393351662  0.40370525890389214  0.3646273194345815  Uiso  ?  Ce
O1  1.0  0.6316071505903222  0.4042410167564435  0.39687258504301415  Uiso  ?  O
O1  1.0  0.6721296260913081  0.40905073407259923  0.38016651582762495  Uiso  ?  O
O1  1.0  0.623650998926461  0.3711313160611903  0.37215529167385736  Uiso  ?  O
O1  1.0  0.6596159103592288  0.3752917131202641  0.3554045415540791  Uiso  ?  O
O1  1.0  0.6469231839713279  0.3789378752758997  0.4255549184474153  Uiso  ?  O
O1  1.0  0.6852575273999405  0.3817295062447578  0.4080097174897949  Uiso  ?  O
Ce1  1.0  0.5892806587235608  0.3664348949143606  0.3540670535465208  Uiso  ?  Ce
Ce1  1.0  0.6595288713750739  0.44044976294508864  0.5144656499086738  Uiso  ?  Ce
Ce1  1.0  0.6651989092281255  0.3814579250207659  0.5158375570870392  Uiso  ?  Ce
Ce1  1.0  0.6870207426761016  0.4112240240783413  0.466617906337439  Uiso  ?  Ce
O1  1.0  0.6812583412277224  0.4128304605016742  0.5016242904097403  Uiso  ?  O
O1  1.0  0.6714182036477028  0.38209765766100773  0.47661701917592864  Uiso  ?  O
O1  1.0  0.7123171382276644  0.383224966240404  0.46184312394021765  Uiso  ?  O
O1  1.0  0.697458738508998  0.38709546045982574  0.5341600740651664  Uiso  ?  O
Ce1  1.0  0.6413623692695359  0.3766164930245504  0.4609869287003812  Uiso  ?  Ce
Ce1  1.0  0.6897865001482664  0.3863587226642121  0.5708770138412405  Uiso  ?  Ce
O1  1.0  0.6445578789785528  0.4304448798169521  0.22613844794238128  Uiso  ?  O
Ce1  1.0  0.6618995771086353  0.4370597237714849  0.31152026845066044  Uiso  ?  Ce
O1  1.0  0.6703631231416367  0.43160273553793055  0.27895804618368303  Uiso  ?  O
O1  1.0  0.707838283247878  0.4363172587704597  0.2653273101079033  Uiso  ?  O
O1  1.0  0.6943127711509303  0.44078039510941824  0.33359241429835407  Uiso  ?  O
O1  1.0  0.6828279632049986  0.4062236391040253  0.31052268888496937  Uiso  ?  O
Ce1  1.0  0.6369449455757694  0.4292430221803871  0.25876415927195323  Uiso  ?  Ce
Ce1  1.0  0.6447199803998832  0.3713071770375031  0.2642773405750081  Uiso  ?  Ce
Ce1  1.0  0.6918480726433429  0.4064488118338454  0.27391710067786035  Uiso  ?  Ce
Ce1  1.0  0.6646992815701175  0.4006813923898364  0.21579222547239954  Uiso  ?  Ce
O1  1.0  0.6581411015212336  0.4040176608306366  0.2513696293137877  Uiso  ?  O
O1  1.0  0.6976759434055628  0.4082962106960227  0.2345782791745862  Uiso  ?  O
O1  1.0  0.6511567255220535  0.3688590007593298  0.2285933750450821  Uiso  ?  O
O1  1.0  0.6867629632385395  0.3729965040899912  0.2108414309366332  Uiso  ?  O
O1  1.0  0.6741164476679422  0.37693415043279405  0.28196653055535675  Uiso  ?  O
O1  1.0  0.7120088237855832  0.3795300447749536  0.2648477170230789  Uiso  ?  O
Ce1  1.0  0.685247704859273  0.4365551261647015  0.36962221664252637  Uiso  ?  Ce
Ce1  1.0  0.6904282458497589  0.38050352444150876  0.3729297152379986  Uiso  ?  Ce
Ce1  1.0  0.7151790588570083  0.411440161975435  0.3266335377887491  Uiso  ?  Ce
O1  1.0  0.7057883235540031  0.41108147994860783  0.36306172491132377  Uiso  ?  O
O1  1.0  0.6982367775673995  0.3781316109866804  0.3375999884041188  Uiso  ?  O
O1  1.0  0.7247809462368006  0.38418140620719177  0.38871071439603183  Uiso  ?  O
Ce1  1.0  0.668058084915309  0.37732714294549097  0.31684060547720405  Uiso  ?  Ce
Ce1  1.0  0.7158251651829899  0.38504663273146766  0.42618268264842424  Uiso  ?  Ce
Ce1  1.0  0.7220503889002958  0.37937073616985506  0.22658808853663487  Uiso  ?  Ce
O1  1.0  0.17658885249193212  0.3340902478543161  0.7080101538317952  Uiso  ?  O
O1  1.0  0.19030142392963076  0.3063207685821666  0.7352103444319923  Uiso  ?  O
Ce1  1.0  0.16018214102301825  0.3024773585618617  0.7188426467558964  Uiso  ?  Ce
O1  1.0  0.16885356332939772  0.30216536733780175  0.6788612131861277  Uiso  ?  O
O1  1.0  0.24198964677961707  0.31748257194024165  0.8405199910453732  Uiso  ?  O
Ce1  1.0  0.2100103514735881  0.3161475799148734  0.8245574850604752  Uiso  ?  Ce
Ce1  1.0  0.18318498967171923  0.3088155589447587  0.7666145293995088  Uiso  ?  Ce
O1  1.0  0.177877609038956  0.3108460892871636  0.8061648668026291  Uiso  ?  O
O1  1.0  0.21607951946280998  0.3129800170084958  0.7913757211183954  Uiso  ?  O
O1  1.0  0.23126800407625978  0.2860130456431795  0.8181026540449178  Uiso  ?  O
O1  1.0  0.21979365112032834  0.29017861274404744  0.8886777815629585  Uiso  ?  O
O1  1.0  0.2577168546474341  0.2893124514816558  0.8699290316326354  Uiso  ?  O
O1  1.0  0.19162321714602848  0.35833294352076384  0.5353595512211814  Uiso  ?  O
O1  1.0  0.1792655982079695  0.32892453224435164  0.5099916071047629  Uiso  ?  O
O1  1.0  0.1715560007755161  0.2972482269458026  0.4837727631981465  Uiso  ?  O
O1  1.0  0.19950416055430054  0.3659835608719923  0.6624384325502639  Uiso  ?  O
Ce1  1.0  0.20610981088595107  0.363646675975025  0.6267125522780257  Uiso  ?  Ce
Ce1  1.0  0.1835484647674269  0.3607760489752554  0.5695366397829517  Uiso  ?  Ce
O1  1.0  0.17545234558773856  0.36078141781114376  0.6080813838041952  Uiso  ?  O
O1  1.0  0.21355073712915046  0.3663976472594815  0.590620313343514  Uiso  ?  O
O1  1.0  0.16660364722825208  0.32770880866845764  0.5811975929663169  Uiso  ?  O
O1  1.0  0.20537924797070484  0.3344285121735508  0.5642932746119739  Uiso  ?  O
O1  1.0  0.18760372653798815  0.3342077821185051  0.6343600852219344  Uiso  ?  O
O1  1.0  0.2291740306775047  0.33896901922489564  0.6166345246956358  Uiso  ?  O
O1  1.0  0.18037095297761105  0.30268324844355265  0.6100535433296675  Uiso  ?  O
O1  1.0  0.21817321698579903  0.3029546073722239  0.5910140415213353  Uiso  ?  O
Ce1  1.0  0.18949757058967426  0.30294291020427794  0.5742249394288056  Uiso  ?  Ce
Ce1  1.0  0.16200901495988995  0.29699787703832814  0.5209784349259526  Uiso  ?  Ce
O1  1.0  0.1934258052832688  0.301378669902112  0.5380683925041224  Uiso  ?  O
Ce1  1.0  0.20695507694311976  0.3382207268274473  0.7245217055588792  Uiso  ?  Ce
O1  1.0  0.2122528825224763  0.3404210238507031  0.6889313984983786  Uiso  ?  O
O1  1.0  0.2539631015506417  0.339981704186469  0.6719997873217558  Uiso  ?  O
O1  1.0  0.24037441433007445  0.34418947849025516  0.7440257428998017  Uiso  ?  O
O1  1.0  0.2745114040634318  0.3474448635650914  0.7259235734721501  Uiso  ?  O
O1  1.0  0.2275405456494971  0.3105583479340168  0.7159952363027174  Uiso  ?  O
O1  1.0  0.26713342148082936  0.3160906637766207  0.7022247516342357  Uiso  ?  O
Ce1  1.0  0.18131478173672402  0.3379158062043453  0.6714703829928845  Uiso  ?  Ce
Ce1  1.0  0.23650168212766445  0.3138546361582713  0.6814669129657773  Uiso  ?  Ce
Ce1  1.0  0.20959063821668272  0.30837405998473955  0.629733700202562  Uiso  ?  Ce
O1  1.0  0.20552374115469413  0.3066665596742826  0.6635938772896228  Uiso  ?  O
O1  1.0  0.24455417685666492  0.31008758008129733  0.6450794181445468  Uiso  ?  O
O1  1.0  0.299711947695051  0.3517590325223785  0.7791412692643059  Uiso  ?  O
O1  1.0  0.28020092107990396  0.32276736940396605  0.824365549284667  Uiso  ?  O
O1  1.0  0.31893144770341925  0.3229370044536463  0.8112026705221753  Uiso  ?  O
Ce1  1.0  0.2878358185095951  0.3202051038233163  0.7885156949530829  Uiso  ?  Ce
Ce1  1.0  0.26322384028321616  0.31267715442898814  0.7348728276664694  Uiso  ?  Ce
O1  1.0  0.2537762354982926  0.3184806419370099  0.7703791991412909  Uiso  ?  O
O1  1.0  0.2917410010041865  0.32141766560511914  0.7525223751057951  Uiso  ?  O
O1  1.0  0.28481390317126043  0.2866714639424856  0.7283326255422041  Uiso  ?  O
O1  1.0  0.2697891529532034  0.2913997915930974  0.8006764641169722  Uiso  ?  O
O1  1.0  0.31018597507554646  0.2919324140129852  0.7813674316626934  Uiso  ?  O
Ce1  1.0  0.30926440155489654  0.32651231774999384  0.8429084129118699  Uiso  ?  Ce
O1  1.0  0.3027181003510635  0.32913679986352634  0.8809290216111267  Uiso  ?  O
O1  1.0  0.34204649028803974  0.32794572727329635  0.8610095193718942  Uiso  ?  O
O1  1.0  0.29414013779437603  0.2976875779841463  0.8537932965574119  Uiso  ?  O
O1  1.0  0.3321026586221196  0.30000473515371195  0.8348333796714302  Uiso  ?  O
Ce1  1.0  0.26384784323563437  0.2890855026820311  0.8359362669938868  Uiso  ?  Ce
O1  1.0  0.22821026488299595  0.3649683149268341  0.514784385246248  Uiso  ?  O
O1  1.0  0.2644021538023335  0.3644888946374953  0.49956382361967694  Uiso  ?  O
Ce1  1.0  0.23333872317841514  0.3644611484810139  0.4820136828761047  Uiso  ?  Ce
O1  1.0  0.2176600195651151  0.33345490769221375  0.49258148282095815  Uiso  ?  O
O1  1.0  0.2544363168206328  0.33610495430934473  0.475381507535189  Uiso  ?  O
O1  1.0  0.21118380282224522  0.302132137407864  0.4662022905688333  Uiso  ?  O
O1  1.0  0.24818898074459636  0.30357377721726314  0.4452896734899007  Uiso  ?  O
Ce1  1.0  0.23616179289293762  0.335561211318542  0.5831881266893746  Uiso  ?  Ce
Ce1  1.0  0.25697353216613733  0.37008048677863187  0.53889787249701  Uiso  ?  Ce
O1  1.0  0.24044090481507258  0.33626068370451506  0.5489261683911048  Uiso  ?  O
O1  1.0  0.2771992501627068  0.3411163898348568  0.5276137491461016  Uiso  ?  O
O1  1.0  0.2657683678990195  0.3426621902364855  0.5996731942899893  Uiso  ?  O
O1  1.0  0.3043496555031578  0.3449338720904732  0.5843942734657394  Uiso  ?  O
O1  1.0  0.25907040455967223  0.3097673305967479  0.5745893246539248  Uiso  ?  O
O1  1.0  0.29508924629616057  0.3157258278838703  0.5581972832547573  Uiso  ?  O
Ce1  1.0  0.21164759399477157  0.3325862148147349  0.528998514551321  Uiso  ?  Ce
Ce1  1.0  0.2626093453418963  0.310468280743152  0.5415101255368472  Uiso  ?  Ce
Ce1  1.0  0.2410619078137491  0.30341914741560205  0.48508567677469755  Uiso  ?  Ce
O1  1.0  0.2348612970336258  0.30703559278615605  0.5187217109922504  Uiso  ?  O
O1  1.0  0.2712428301122069  0.30766087637788553  0.5016081009258778  Uiso  ?  O
Ce1  1.0  0.2836638232293883  0.34538233759377657  0.6921751172744708  Uiso  ?  Ce
O1  1.0  0.28614934713738727  0.3471349124214192  0.6550609336221129  Uiso  ?  O
O1  1.0  0.3282720092257115  0.3504664250834644  0.6355509370083511  Uiso  ?  O
O1  1.0  0.3136200538393879  0.3509634654806366  0.7053249489922769  Uiso  ?  O
O1  1.0  0.35367916191392545  0.3552925223900352  0.6904586385801131  Uiso  ?  O
O1  1.0  0.3067045179737166  0.3210844468330855  0.6852483467824407  Uiso  ?  O
O1  1.0  0.34540291020993946  0.32402993782047673  0.667154893016214  Uiso  ?  O
Ce1  1.0  0.2581005784985515  0.33903033709324226  0.6357304018605878  Uiso  ?  Ce
Ce1  1.0  0.3142916130399455  0.31785472561829314  0.6462894815402718  Uiso  ?  Ce
Ce1  1.0  0.28853903533774217  0.314631497191768  0.5935382336073467  Uiso  ?  Ce
O1  1.0  0.28316281941654886  0.31310608951031504  0.6289316596147541  Uiso  ?  O
O1  1.0  0.31943003575497486  0.3185274114955186  0.6136013679421095  Uiso  ?  O
O1  1.0  0.3105765757438037  0.2846858385199258  0.5836596893782128  Uiso  ?  O
O1  1.0  0.29713839921992674  0.2880096459900334  0.6596907818929032  Uiso  ?  O
O1  1.0  0.3347601253381268  0.2874964040726482  0.6400926451739536  Uiso  ?  O
Ce1  1.0  0.3351315970783618  0.3567120814834729  0.8000843200021908  Uiso  ?  Ce
O1  1.0  0.33985232152541256  0.35481734857525915  0.7632316742721209  Uiso  ?  O
O1  1.0  0.37778960179560195  0.35874591279121915  0.7430717511344526  Uiso  ?  O
O1  1.0  0.3658108316010298  0.3613902158614826  0.8167632883384564  Uiso  ?  O
O1  1.0  0.40217316989327634  0.36557706106514054  0.8002784294199137  Uiso  ?  O
O1  1.0  0.3563816364057855  0.3309328072386925  0.7927439743239053  Uiso  ?  O
O1  1.0  0.3919801424850367  0.33357601099546386  0.7738892617118118  Uiso  ?  O
Ce1  1.0  0.31154105131444026  0.35246379522597326  0.7463738099365552  Uiso  ?  Ce
Ce1  1.0  0.3149025394814245  0.2914265749449073  0.7458983278819282  Uiso  ?  Ce
Ce1  1.0  0.36201091025335547  0.32731010148484685  0.7523808098726897  Uiso  ?  Ce
Ce1  1.0  0.3380980283909174  0.3211193238254597  0.7030879244724118  Uiso  ?  Ce
O1  1.0  0.33098871438409466  0.32199558672191114  0.7356395376469821  Uiso  ?  O
O1  1.0  0.36976731859775375  0.32640185804250554  0.7171484293300512  Uiso  ?  O
O1  1.0  0.32264908706243084  0.2901422077776105  0.7105753400785816  Uiso  ?  O
O1  1.0  0.35959486119637524  0.2958731540344552  0.6957198967832275  Uiso  ?  O
O1  1.0  0.34684438200861295  0.29285189974136505  0.7661235906527342  Uiso  ?  O
O1  1.0  0.3881218426058797  0.30058915776358414  0.7455720717149867  Uiso  ?  O
Ce1  1.0  0.29192839763917405  0.2902170724517971  0.6912500638579007  Uiso  ?  Ce
O1  1.0  0.4414000687681965  0.3435050350743182  0.8819953384729834  Uiso  ?  O
Ce1  1.0  0.36438376495293984  0.30258201219615405  0.8548904863360979  Uiso  ?  Ce
Ce1  1.0  0.4102522932135497  0.3372428311070897  0.8612578149750083  Uiso  ?  Ce
Ce1  1.0  0.3823354403219687  0.3320615905822015  0.8069222526918326  Uiso  ?  Ce
O1  1.0  0.3796955361811223  0.33251945216719586  0.8439608834955729  Uiso  ?  O
O1  1.0  0.4166960998482708  0.33757575267567674  0.8292261771025723  Uiso  ?  O
O1  1.0  0.3698657481471503  0.3003298174809575  0.8186136077548555  Uiso  ?  O
O1  1.0  0.4081445355821369  0.30612898258369914  0.7995963765141558  Uiso  ?  O
O1  1.0  0.3965934461408864  0.3078614344829563  0.8742354267315008  Uiso  ?  O
O1  1.0  0.4336801082009676  0.3086619037479631  0.8558355916033336  Uiso  ?  O
Ce1  1.0  0.3413642113175116  0.2977473735331255  0.8003288059574629  Uiso  ?  Ce
Ce1  1.0  0.2627273237838305  0.3306957473417085  0.4361175291050468  Uiso  ?  Ce
O1  1.0  0.2806811876029785  0.36630041726149504  0.42716770987310615  Uiso  ?  O
O1  1.0  0.3092724669237176  0.33825735841471755  0.38310579144706325  Uiso  ?  O
O1  1.0  0.2926592583868099  0.34207932351616627  0.4579991468447272  Uiso  ?  O
O1  1.0  0.32933676408106694  0.3439889151666882  0.4414913432132996  Uiso  ?  O
O1  1.0  0.2855709659392944  0.3086355579516537  0.43062413615222056  Uiso  ?  O
O1  1.0  0.32025310855583683  0.3113178474425773  0.4143912852135383  Uiso  ?  O
Ce1  1.0  0.29267788531876865  0.3070680257111144  0.3918386827832902  Uiso  ?  Ce
Ce1  1.0  0.30878541637517853  0.3448356117399157  0.5474340189251458  Uiso  ?  Ce
O1  1.0  0.3178602851754946  0.3417022096914967  0.5107642275243222  Uiso  ?  O
O1  1.0  0.35553688368835723  0.34719309390889513  0.4915243799408365  Uiso  ?  O
O1  1.0  0.34171537621295794  0.3489294448842573  0.5655540123542014  Uiso  ?  O
O1  1.0  0.38094933043580864  0.35138810125992553  0.5490744880560072  Uiso  ?  O
O1  1.0  0.33278134139750104  0.31671485156590234  0.5388569945328523  Uiso  ?  O
O1  1.0  0.3692532766855435  0.3221908875557787  0.5219293523025539  Uiso  ?  O
Ce1  1.0  0.2849131040736142  0.341491812760206  0.49444858694375615  Uiso  ?  Ce
Ce1  1.0  0.3414759021587057  0.3150756058680812  0.5005444020553188  Uiso  ?  Ce
Ce1  1.0  0.31767431074792896  0.31084702041356294  0.44880940278192105  Uiso  ?  Ce
O1  1.0  0.3078525246687483  0.31504868653339135  0.4847062067856213  Uiso  ?  O
O1  1.0  0.3480222741566932  0.31515698714320056  0.4686173430157289  Uiso  ?  O
O1  1.0  0.3637694191552701  0.2853481378597474  0.4940751906140801  Uiso  ?  O
Ce1  1.0  0.35972426099581944  0.35213767602672746  0.6539848839221454  Uiso  ?  Ce
O1  1.0  0.36581989510558294  0.3519425309795016  0.6190238244134861  Uiso  ?  O
O1  1.0  0.40584807941366063  0.3576493901204645  0.6033891371288158  Uiso  ?  O
O1  1.0  0.390708023511434  0.35515906103118694  0.670407574234348  Uiso  ?  O
O1  1.0  0.43099518611500953  0.36257657854980624  0.6552395329031963  Uiso  ?  O
O1  1.0  0.3804323331703715  0.3241786864284684  0.647597593930229  Uiso  ?  O
O1  1.0  0.41887819002218074  0.3295187113516082  0.6287363997598966  Uiso  ?  O
Ce1  1.0  0.33617382547174585  0.34866040610974475  0.6013173794046606  Uiso  ?  Ce
Ce1  1.0  0.3422813161602914  0.28953153617997307  0.6040864006752577  Uiso  ?  Ce
Ce1  1.0  0.39029484620047217  0.3271868224143949  0.6119337354836715  Uiso  ?  Ce
Ce1  1.0  0.3677912952059708  0.32054171178823876  0.5585496164183813  Uiso  ?  Ce
O1  1.0  0.3613630490141072  0.32088079333141656  0.5928891109539471  Uiso  ?  O
O1  1.0  0.3966483601501333  0.3241398251823209  0.5760102164317288  Uiso  ?  O
O1  1.0  0.348894246346773  0.2893736009619827  0.5665882533948072  Uiso  ?  O
O1  1.0  0.3871912573658457  0.29118554493665005  0.549434184397791  Uiso  ?  O
O1  1.0  0.3732139995566211  0.29587845727209294  0.6204254533026899  Uiso  ?  O
O1  1.0  0.4094885053700348  0.2981388740349338  0.6061188386833057  Uiso  ?  O
Ce1  1.0  0.40680034583360597  0.3617834714089905  0.7647367924153124  Uiso  ?  Ce
O1  1.0  0.4158838613877108  0.36270373240871534  0.7269633929668277  Uiso  ?  O
O1  1.0  0.45390940911973915  0.36732359680142973  0.7107601543317876  Uiso  ?  O
O1  1.0  0.439858103821684  0.3672184995441128  0.7815120500924906  Uiso  ?  O
O1  1.0  0.43126049270569405  0.3371529204698876  0.7538871008631529  Uiso  ?  O
O1  1.0  0.47249428363403373  0.338779191337328  0.7409195318734842  Uiso  ?  O
Ce1  1.0  0.3828811259505185  0.35995672621416663  0.7079871725365968  Uiso  ?  Ce
Ce1  1.0  0.390927770380319  0.30057746196023893  0.7061240641029763  Uiso  ?  Ce
Ce1  1.0  0.4392987897992134  0.3364228151726852  0.7214303400525232  Uiso  ?  Ce
Ce1  1.0  0.4139887437487987  0.3301090024036087  0.664212599955982  Uiso  ?  Ce
O1  1.0  0.4075484032113545  0.3301389958446825  0.7002687663692624  Uiso  ?  O
O1  1.0  0.4490550473293994  0.33391242718811376  0.6850542655093645  Uiso  ?  O
O1  1.0  0.3971256282890565  0.29775256333344247  0.6778700740529029  Uiso  ?  O
O1  1.0  0.4374050193229826  0.30549167802687627  0.6566789942564705  Uiso  ?  O
O1  1.0  0.4212093330166879  0.3012719591237991  0.7299539524737051  Uiso  ?  O
O1  1.0  0.460672685445084  0.30999125832165214  0.7127969512453162  Uiso  ?  O
Ce1  1.0  0.36946815909899283  0.2922735223929335  0.6571652768848807  Uiso  ?  Ce
O1  1.0  0.47752006441278994  0.3454533962930928  0.8608601050806484  Uiso  ?  O
O1  1.0  0.5193614673184868  0.347591092302165  0.8479354530473162  Uiso  ?  O
Ce1  1.0  0.4376027439635997  0.30946667688490576  0.8190881059998767  Uiso  ?  Ce
Ce1  1.0  0.486763957902282  0.34602789151853997  0.8261781861708768  Uiso  ?  Ce
Ce1  1.0  0.4623217151758945  0.33976760966229586  0.7730698474302583  Uiso  ?  Ce
O1  1.0  0.45802570462299963  0.3400017895358583  0.8087175343163777  Uiso  ?  O
O1  1.0  0.4953621548245985  0.3474393981302538  0.7914442320746939  Uiso  ?  O
O1  1.0  0.4488443605407537  0.3079039106702226  0.785621078702998  Uiso  ?  O
O1  1.0  0.48403436929988797  0.31297420435881174  0.766645822274815  Uiso  ?  O
O1  1.0  0.47075684784285426  0.3140540485294199  0.8369596470730947  Uiso  ?  O
O1  1.0  0.5090124422277817  0.3153332787990137  0.8197626934397125  Uiso  ?  O
Ce1  1.0  0.4146155665782751  0.304158783043616  0.7642101144692005  Uiso  ?  Ce
Ce1  1.0  0.5126694122882917  0.3499695151561449  0.8810493590934629  Uiso  ?  Ce
O1  1.0  0.532974304305484  0.3227441750132586  0.874345833071015  Uiso  ?  O
Ce1  1.0  0.4650155730557259  0.31352503580121666  0.873054093860353  Uiso  ?  Ce
Ce1  1.0  0.5172254343352312  0.2892426801463459  0.8832094011857307  Uiso  ?  Ce
O1  1.0  0.48431950853145916  0.2878651798334496  0.8643448698443438  Uiso  ?  O
O1  1.0  0.525592906133559  0.291245753097283  0.8464826080304922  Uiso  ?  O
Ce1  1.0  0.3389150261351888  0.3442887115409866  0.40650456008138397  Uiso  ?  Ce
O1  1.0  0.3428156647120531  0.3418265014066897  0.366689304833264  Uiso  ?  O
O1  1.0  0.383646923437679  0.34320490591730785  0.3505621397554647  Uiso  ?  O
O1  1.0  0.36952473829155447  0.3448915154118385  0.42361712530117823  Uiso  ?  O
O1  1.0  0.40676841145221504  0.3502166327126228  0.404644459235329  Uiso  ?  O
O1  1.0  0.36267169133194016  0.3134783808815894  0.39515344156868204  Uiso  ?  O
O1  1.0  0.4001533369335457  0.314884367666742  0.38019738424370897  Uiso  ?  O
Ce1  1.0  0.36820865851321294  0.3147098201244818  0.3592363177583108  Uiso  ?  Ce
O1  1.0  0.37327999442450344  0.3147565913004631  0.3252315300017452  Uiso  ?  O
O1  1.0  0.3917018948775964  0.2831150957588495  0.35193421225699356  Uiso  ?  O
Ce1  1.0  0.38773431767950345  0.353111026362766  0.5127646294850101  Uiso  ?  Ce
O1  1.0  0.3938165995336329  0.3516323892636052  0.47576492884172095  Uiso  ?  O
O1  1.0  0.4313703678735085  0.3578038699402261  0.4561986201300221  Uiso  ?  O
O1  1.0  0.4199099564512871  0.35493399738183334  0.5304714593897563  Uiso  ?  O
O1  1.0  0.4549543754633071  0.35954806840894965  0.5123089598770608  Uiso  ?  O
O1  1.0  0.4078330809383852  0.32346544179608805  0.5043626355622864  Uiso  ?  O
O1  1.0  0.446816348168226  0.32570283461695126  0.48541089891377676  Uiso  ?  O
Ce1  1.0  0.3632375508623105  0.34575320075757054  0.4570719540638562  Uiso  ?  Ce
Ce1  1.0  0.37129512912500345  0.286868359766337  0.45874824975981854  Uiso  ?  Ce
Ce1  1.0  0.4178853736961585  0.3210042282552224  0.46816385997639937  Uiso  ?  Ce
Ce1  1.0  0.3915798366838031  0.31877380263043104  0.4128583045196762  Uiso  ?  Ce
O1  1.0  0.38780840356941315  0.31844499349269595  0.45064583049765267  Uiso  ?  O
O1  1.0  0.42594456094621913  0.3208594789521855  0.4323011102245432  Uiso  ?  O
O1  1.0  0.3748779160362898  0.2863838062678542  0.42274926572419663  Uiso  ?  O
O1  1.0  0.41259150425938246  0.28979330820106436  0.4045897460701899  Uiso  ?  O
O1  1.0  0.4005491004079601  0.2930502298277064  0.4778755826659195  Uiso  ?  O
O1  1.0  0.4386422390020477  0.2960550683906827  0.46121427022260797  Uiso  ?  O
Ce1  1.0  0.4379549815497399  0.3634343969273946  0.6190610843110419  Uiso  ?  Ce
O1  1.0  0.4422589860144124  0.3621761440849759  0.5839779602354572  Uiso  ?  O
O1  1.0  0.4831401783183965  0.3642133136390142  0.5665646904454604  Uiso  ?  O
O1  1.0  0.46834359452693947  0.3669669489135751  0.6403397431179515  Uiso  ?  O
O1  1.0  0.457552526607528  0.3342815381509613  0.6092852916962065  Uiso  ?  O
O1  1.0  0.4959283816430505  0.33636942171565803  0.5957937254721101  Uiso  ?  O
Ce1  1.0  0.41213437485660986  0.3571891403225377  0.5675616934400973  Uiso  ?  Ce
Ce1  1.0  0.4177678182821478  0.29903523303156115  0.5677256007141708  Uiso  ?  Ce
Ce1  1.0  0.4660890836888746  0.331079430932172  0.5776861815843444  Uiso  ?  Ce
Ce1  1.0  0.44103131687932506  0.3278529430863822  0.523016698773063  Uiso  ?  Ce
O1  1.0  0.43455483511451676  0.32716588456718  0.5552417427171309  Uiso  ?  O
O1  1.0  0.47265106538425944  0.33238503008921005  0.5429300835182331  Uiso  ?  O
O1  1.0  0.42616988395605276  0.296523972299768  0.5340194131194743  Uiso  ?  O
O1  1.0  0.4636249030118457  0.2997677949315392  0.5160220921812526  Uiso  ?  O
O1  1.0  0.44967495918851413  0.3018814822794839  0.5853932854922613  Uiso  ?  O
O1  1.0  0.48900178407131223  0.30578647082101296  0.5668038476252698  Uiso  ?  O
Ce1  1.0  0.39540884219978073  0.29443902849033493  0.5145437851285575  Uiso  ?  Ce
O1  1.0  0.5071989983363892  0.3455123693169829  0.7207797491914416  Uiso  ?  O
O1  1.0  0.5446366181883926  0.3461934827273751  0.7013282186909094  Uiso  ?  O
Ce1  1.0  0.4591681352344016  0.3652260572520583  0.6733421529662402  Uiso  ?  Ce
Ce1  1.0  0.4684580813480269  0.3071187384748755  0.6780494433074287  Uiso  ?  Ce
Ce1  1.0  0.5125081017254882  0.34143903996019115  0.6848063578835332  Uiso  ?  Ce
Ce1  1.0  0.4883035697346221  0.3377406420918685  0.6307153176149657  Uiso  ?  Ce
O1  1.0  0.48496535132426716  0.34196821901731417  0.66494493815403  Uiso  ?  O
O1  1.0  0.5211711849573948  0.3395658417657128  0.6518434077472639  Uiso  ?  O
O1  1.0  0.47451639529972883  0.30531502961532714  0.6415306552784834  Uiso  ?  O
O1  1.0  0.5119942171247541  0.30812507874477707  0.622465669701784  Uiso  ?  O
O1  1.0  0.49741578685351745  0.31160134882031887  0.6947583112725175  Uiso  ?  O
O1  1.0  0.5377693814936848  0.3170609223695254  0.6757406344680424  Uiso  ?  O
Ce1  1.0  0.44319427767316544  0.3034592289968857  0.6229421544515873  Uiso  ?  Ce
O1  1.0  0.5584234603469866  0.35215932091794383  0.8287581315256252  Uiso  ?  O
O1  1.0  0.5962764438808523  0.3576963398622137  0.8101751321006435  Uiso  ?  O
Ce1  1.0  0.5148734326938899  0.3159076497098443  0.7828419137649394  Uiso  ?  Ce
Ce1  1.0  0.5645332008236704  0.35310894082585476  0.7937639435355658  Uiso  ?  Ce
Ce1  1.0  0.5391459714155376  0.3467571318793506  0.7380163820607838  Uiso  ?  Ce
O1  1.0  0.5310436574807528  0.3473592884395197  0.7757540551041064  Uiso  ?  O
O1  1.0  0.571963965771279  0.3503534302122219  0.7571925789985942  Uiso  ?  O
O1  1.0  0.5243107438179361  0.3187657144457162  0.749012544148747  Uiso  ?  O
O1  1.0  0.5620760982985089  0.3182153097178474  0.7306855864501415  Uiso  ?  O
O1  1.0  0.5473485980433046  0.3215396749711441  0.8041555975296807  Uiso  ?  O
O1  1.0  0.5843233535422168  0.3214662625978819  0.7877135487513317  Uiso  ?  O
O1  1.0  0.5381721526631322  0.2866559327045317  0.7748846458171537  Uiso  ?  O
O1  1.0  0.5788072239236978  0.29298997622381423  0.7611481551418413  Uiso  ?  O
Ce1  1.0  0.4889555213860603  0.3100621323038794  0.7280917966423844  Uiso  ?  Ce
Ce1  1.0  0.5471067784296345  0.2882903862990891  0.7398014322452772  Uiso  ?  Ce
O1  1.0  0.5508939301782759  0.28532360162361325  0.705644725593093  Uiso  ?  O
Ce1  1.0  0.5884432505022513  0.35536503212044007  0.8473317889944161  Uiso  ?  Ce
O1  1.0  0.578302947886601  0.35547888231995767  0.8813678704775784  Uiso  ?  O
O1  1.0  0.6214511005982565  0.3591074431457447  0.8654625580964252  Uiso  ?  O
O1  1.0  0.5694482478171025  0.32353807481713065  0.8562769371057757  Uiso  ?  O
O1  1.0  0.6086807322719482  0.32950743789900927  0.838059065386807  Uiso  ?  O
O1  1.0  0.5885514669763352  0.2970490041687224  0.8837874206159609  Uiso  ?  O
O1  1.0  0.6241207507607408  0.30025135091870353  0.8660103538601411  Uiso  ?  O
Ce1  1.0  0.5375630335404432  0.322808660323293  0.8364185328686463  Uiso  ?  Ce
Ce1  1.0  0.5951931364362328  0.2970009277564914  0.8464477282525865  Uiso  ?  Ce
Ce1  1.0  0.5699330064432766  0.2941011641087801  0.7954462996326334  Uiso  ?  Ce
O1  1.0  0.5627143095638056  0.29231190512936583  0.8320562687663603  Uiso  ?  O
O1  1.0  0.5995105739824205  0.29643984896067205  0.8143108227772712  Uiso  ?  O
Ce1  1.0  0.417618052045547  0.3497508454522683  0.3698452961473724  Uiso  ?  Ce
O1  1.0  0.4220623129393899  0.3492975361082326  0.33190163624973246  Uiso  ?  O
O1  1.0  0.4614489350679815  0.35111371499534405  0.31601594208286293  Uiso  ?  O
O1  1.0  0.44513511081787  0.3532077194750698  0.38881529273249493  Uiso  ?  O
O1  1.0  0.48392320643816805  0.3553871939713579  0.37070601060297814  Uiso  ?  O
O1  1.0  0.4400258605410966  0.3191687766281817  0.3612192577440094  Uiso  ?  O
O1  1.0  0.4746097803715264  0.3231324483063471  0.34351567033344726  Uiso  ?  O
Ce1  1.0  0.4436220791241832  0.32002272754122074  0.3263102431598342  Uiso  ?  Ce
O1  1.0  0.41098924770581235  0.3181468041098858  0.308705899269783  Uiso  ?  O
O1  1.0  0.4496469871495794  0.32044258173944845  0.286773008643564  Uiso  ?  O
O1  1.0  0.444681582944007  0.28764406845450985  0.26365226378914886  Uiso  ?  O
O1  1.0  0.42943153979820453  0.287358070588298  0.3350607798531705  Uiso  ?  O
O1  1.0  0.464973203743611  0.2929866590054482  0.31799895559618063  Uiso  ?  O
Ce1  1.0  0.46316482157454697  0.3611377308031972  0.47556528334686504  Uiso  ?  Ce
O1  1.0  0.467982801280439  0.359660073419985  0.4414825322128401  Uiso  ?  O
O1  1.0  0.5097176491623789  0.36345857804609244  0.4251392675330962  Uiso  ?  O
O1  1.0  0.49419160551280295  0.3631315354393866  0.4985731680657402  Uiso  ?  O
O1  1.0  0.5330611195343261  0.36454596479533674  0.47624853993616706  Uiso  ?  O
O1  1.0  0.4872130920984953  0.3333706564912156  0.4697994387281941  Uiso  ?  O
O1  1.0  0.5219696144744624  0.33253373505958983  0.4505271800760677  Uiso  ?  O
Ce1  1.0  0.43994252173690235  0.3530782694146342  0.42373039619106884  Uiso  ?  Ce
Ce1  1.0  0.44495952041916415  0.29266521366728177  0.42382142158625524  Uiso  ?  Ce
Ce1  1.0  0.49260388057876103  0.3322989588417276  0.43408564551660317  Uiso  ?  Ce
Ce1  1.0  0.46995648392099076  0.3270575336169963  0.3796379752083105  Uiso  ?  Ce
O1  1.0  0.46196816445074756  0.3278165751768313  0.41277933371606884  Uiso  ?  O
O1  1.0  0.49800623967033736  0.3313278477564141  0.3993193666130422  Uiso  ?  O
O1  1.0  0.4542056610746557  0.29387248046866365  0.3867328748046118  Uiso  ?  O
O1  1.0  0.4902480264355322  0.2979818292255332  0.3733796611534688  Uiso  ?  O
O1  1.0  0.4775863501639235  0.29943067447661814  0.43938286838068824  Uiso  ?  O
O1  1.0  0.5158064835490275  0.30402072628039506  0.4245031564033514  Uiso  ?  O
Ce1  1.0  0.4217653281739696  0.28948534190567765  0.3730751749090469  Uiso  ?  Ce
O1  1.0  0.5203562713512138  0.3711930479225554  0.5504074402988364  Uiso  ?  O
O1  1.0  0.5365439998028568  0.33979885606205795  0.5806934527322145  Uiso  ?  O
O1  1.0  0.5708402377854316  0.3439512215704768  0.5579790818522519  Uiso  ?  O
Ce1  1.0  0.487486054033834  0.3631919004180375  0.5314099638447414  Uiso  ?  Ce
Ce1  1.0  0.4938776784917991  0.3048691570772698  0.5350601045839104  Uiso  ?  Ce
Ce1  1.0  0.5428858405054074  0.3389366202931002  0.5425272503544296  Uiso  ?  Ce
Ce1  1.0  0.5154038965267282  0.3348223020074805  0.4887251160777705  Uiso  ?  Ce
O1  1.0  0.5088969518320399  0.3354404233658696  0.5259131097587911  Uiso  ?  O
O1  1.0  0.5501393154286853  0.33697495141857264  0.5059430502098388  Uiso  ?  O
O1  1.0  0.5038895827442067  0.30514496900827803  0.49623223228538615  Uiso  ?  O
O1  1.0  0.5391743801157389  0.3084220633225834  0.48114029254125995  Uiso  ?  O
O1  1.0  0.5253422399317718  0.31045209210931296  0.5478383388737149  Uiso  ?  O
O1  1.0  0.5635808205606803  0.31416097890177874  0.5326389777689242  Uiso  ?  O
Ce1  1.0  0.4696919781170161  0.2952603728920945  0.4797139532322519  Uiso  ?  Ce
O1  1.0  0.582951530775211  0.35171035902394626  0.6839062651595834  Uiso  ?  O
O1  1.0  0.6223846040478062  0.35434245226542127  0.6671869485533527  Uiso  ?  O
Ce1  1.0  0.5433445834563511  0.3111846571390985  0.6402066607278231  Uiso  ?  Ce
Ce1  1.0  0.5925882946212913  0.3483461540864459  0.6506014507189882  Uiso  ?  Ce
Ce1  1.0  0.5672729661819104  0.34339451455942593  0.5952447438592471  Uiso  ?  Ce
O1  1.0  0.5595144793624923  0.34572875669285275  0.6325779344173591  Uiso  ?  O
O1  1.0  0.5988846293242724  0.3485414124516164  0.6161503337347678  Uiso  ?  O
O1  1.0  0.5503487064897684  0.3131251183269272  0.6068080587042454  Uiso  ?  O
O1  1.0  0.5916231711749909  0.31502176893388467  0.5906398426240479  Uiso  ?  O
O1  1.0  0.5721979803475729  0.3182855927867937  0.6593405171921363  Uiso  ?  O
O1  1.0  0.6108198640336509  0.3230626738910015  0.6438265040922727  Uiso  ?  O
O1  1.0  0.5696036300126306  0.2844044289887147  0.6336401244077711  Uiso  ?  O
O1  1.0  0.6019059381734074  0.2908223128588131  0.6152319905887229  Uiso  ?  O
Ce1  1.0  0.5214576317004951  0.3109819239381397  0.5882699959193697  Uiso  ?  Ce
O1  1.0  0.6324549283081862  0.35907095177224657  0.7958305014928295  Uiso  ?  O
O1  1.0  0.6730461521587507  0.3625195508084179  0.7751579748461382  Uiso  ?  O
Ce1  1.0  0.5918169099844746  0.32489404366953417  0.7502201151562826  Uiso  ?  Ce
Ce1  1.0  0.641968251062247  0.35870251063970077  0.7553782441644183  Uiso  ?  Ce
Ce1  1.0  0.6130260556314329  0.35500839065842027  0.7050896342297966  Uiso  ?  Ce
O1  1.0  0.6092196570228005  0.3561305422380477  0.7402830321499073  Uiso  ?  O
O1  1.0  0.6478526287866913  0.36009279367008123  0.7209186496490744  Uiso  ?  O
O1  1.0  0.5989753972721986  0.32122072751926806  0.7136075563102077  Uiso  ?  O
O1  1.0  0.6369971986055153  0.326721703574883  0.6977592538199231  Uiso  ?  O
O1  1.0  0.6208749431379246  0.328402706379103  0.7673083627895302  Uiso  ?  O
O1  1.0  0.6619329415292163  0.33440865332370984  0.7491063044797615  Uiso  ?  O
O1  1.0  0.6175660468540313  0.2980592825435664  0.7402683118068591  Uiso  ?  O
O1  1.0  0.6496658200770165  0.2985941431813279  0.7240843531028274  Uiso  ?  O
Ce1  1.0  0.569510588648586  0.3190660054161292  0.6951646341044836  Uiso  ?  Ce
Ce1  1.0  0.6238231412177659  0.29837564939899563  0.7088019720848754  Uiso  ?  Ce
Ce1  1.0  0.5968004244382139  0.28677703746668626  0.6519745558197538  Uiso  ?  Ce
O1  1.0  0.5908523432391724  0.2876642999446522  0.6908273143535666  Uiso  ?  O
O1  1.0  0.6272579313267276  0.29343998320334475  0.6715540989406178  Uiso  ?  O
Ce1  1.0  0.6394948457271756  0.3343647087262749  0.8585514190780467  Uiso  ?  Ce
Ce1  1.0  0.6639631080503663  0.36476836983436856  0.8113030530987893  Uiso  ?  Ce
O1  1.0  0.6564945767868569  0.3665761939576487  0.8487150608207384  Uiso  ?  O
O1  1.0  0.6474489953662489  0.3302296688880509  0.8215179033219496  Uiso  ?  O
O1  1.0  0.6857882327023217  0.33411029847049595  0.8040880140119547  Uiso  ?  O
O1  1.0  0.6637313140462806  0.30380963654110005  0.8522400163463765  Uiso  ?  O
O1  1.0  0.7039033817733955  0.3093423018492293  0.831244997479904  Uiso  ?  O
Ce1  1.0  0.6170477067898343  0.3266624372515051  0.8037668981513005  Uiso  ?  Ce
Ce1  1.0  0.6695392104602643  0.30424656710762205  0.812929181613328  Uiso  ?  Ce
Ce1  1.0  0.6447525614004006  0.299340899286309  0.757240847637739  Uiso  ?  Ce
O1  1.0  0.6384267727365677  0.2992344180721419  0.7951138479800504  Uiso  ?  O
O1  1.0  0.6770201864221823  0.3023084841332066  0.7779098973313147  Uiso  ?  O
O1  1.0  0.511588340062225  0.3565332094885244  0.22691172777819296  Uiso  ?  O
Ce1  1.0  0.4921822558321628  0.3531896429775059  0.33110925429657434  Uiso  ?  Ce
O1  1.0  0.496382429538223  0.35745313073704554  0.30119913549812705  Uiso  ?  O
O1  1.0  0.5388054240520708  0.3582265759383785  0.27970501732166614  Uiso  ?  O
O1  1.0  0.5201813224822147  0.35867192585424185  0.3527660018043064  Uiso  ?  O
O1  1.0  0.5624377320756498  0.3641926213891379  0.33266179579791244  Uiso  ?  O
O1  1.0  0.5120651458803457  0.3296270365233268  0.32538354822154836  Uiso  ?  O
O1  1.0  0.5535803853598199  0.3299282359269378  0.30754783187546064  Uiso  ?  O
Ce1  1.0  0.46643301357306144  0.3491051775458245  0.2796503551312091  Uiso  ?  Ce
Ce1  1.0  0.47378425206704966  0.2890311544105602  0.28129896009486016  Uiso  ?  Ce
Ce1  1.0  0.5193548164315056  0.3280417416997879  0.2914484766974069  Uiso  ?  Ce
Ce1  1.0  0.49408541745686824  0.32265519679421184  0.23399253387658037  Uiso  ?  Ce
O1  1.0  0.48727094119801284  0.3223146885607849  0.2693528368922386  Uiso  ?  O
O1  1.0  0.5310087177389157  0.32362864165133004  0.2530234141714338  Uiso  ?  O
O1  1.0  0.48391123304046696  0.2923016693999136  0.24605840716847133  Uiso  ?  O
O1  1.0  0.5169450310027064  0.2961508959242111  0.22747564593026245  Uiso  ?  O
O1  1.0  0.5059887013109156  0.29843440123524473  0.30030674410553687  Uiso  ?  O
O1  1.0  0.5429488767006383  0.2993719219174795  0.2822688008184003  Uiso  ?  O
Ce1  1.0  0.5407819332226639  0.3667729032679772  0.4418493249160476  Uiso  ?  Ce
O1  1.0  0.5485395069735238  0.36423927887211766  0.4061268227455204  Uiso  ?  O
O1  1.0  0.5634083359895217  0.3391879702203575  0.4322650077534282  Uiso  ?  O
O1  1.0  0.5983587029289891  0.34232043636861054  0.418525375574314  Uiso  ?  O
Ce1  1.0  0.5171345319131689  0.36106789325544897  0.3885006819733345  Uiso  ?  Ce
Ce1  1.0  0.5229196328781056  0.3004446150359094  0.38900918415543745  Uiso  ?  Ce
Ce1  1.0  0.5681756055992523  0.3383218364121554  0.4009107304404124  Uiso  ?  Ce
Ce1  1.0  0.5432787102018765  0.3328470869495272  0.3440343820035871  Uiso  ?  Ce
O1  1.0  0.5371094562743566  0.33391207976099  0.3816229090146316  Uiso  ?  O
O1  1.0  0.5774270783658525  0.3354032300943067  0.3646453127096172  Uiso  ?  O
O1  1.0  0.5286229711630849  0.3005889695899153  0.3501756456121365  Uiso  ?  O
O1  1.0  0.5665687937745195  0.30453919311424965  0.3369858387425606  Uiso  ?  O
O1  1.0  0.5526117044937863  0.3060213099254503  0.40793761771224385  Uiso  ?  O
O1  1.0  0.5933886074489381  0.3082864163895183  0.3935031692370663  Uiso  ?  O
Ce1  1.0  0.49554021620149746  0.296043766216794  0.33690494247500824  Uiso  ?  Ce
O1  1.0  0.6102453019009695  0.34928545333165384  0.5435332399491745  Uiso  ?  O
O1  1.0  0.6485097457159187  0.35088245059357276  0.5244628569960986  Uiso  ?  O
Ce1  1.0  0.5711608126975563  0.308906240884242  0.4973546408869206  Uiso  ?  Ce
Ce1  1.0  0.6165016402686053  0.345013455668073  0.5070917099749136  Uiso  ?  Ce
Ce1  1.0  0.5938816760744619  0.3372342830591124  0.45411352929784604  Uiso  ?  Ce
O1  1.0  0.5888990808575161  0.3447947621614308  0.4891153533389123  Uiso  ?  O
O1  1.0  0.6242985895993204  0.3482259468251442  0.4698614252542044  Uiso  ?  O
O1  1.0  0.5788051615874539  0.31095263148390034  0.461958361876442  Uiso  ?  O
O1  1.0  0.6146511046574322  0.31394897108374475  0.44581267473625563  Uiso  ?  O
O1  1.0  0.6013062616634042  0.31620909138134917  0.5150631547756258  Uiso  ?  O
O1  1.0  0.6415063851729234  0.3187069010449058  0.49834218969064137  Uiso  ?  O
O1  1.0  0.6288614032949521  0.2905861662970284  0.47209635487657253  Uiso  ?  O
Ce1  1.0  0.5462529361957927  0.3068786018606818  0.4426145427723546  Uiso  ?  Ce
O1  1.0  0.6600316311790805  0.3589117059910557  0.6491762653424963  Uiso  ?  O
O1  1.0  0.6971154847930481  0.36244192963751215  0.6309446461544236  Uiso  ?  O
Ce1  1.0  0.6197143223097493  0.3202112995285307  0.6047861416427694  Uiso  ?  Ce
Ce1  1.0  0.6676318887215315  0.3560712099492036  0.6137499281198758  Uiso  ?  Ce
Ce1  1.0  0.6442581778537265  0.3541345213554945  0.5582514654767602  Uiso  ?  Ce
O1  1.0  0.6353268716269856  0.35099025838621006  0.5959185686528856  Uiso  ?  O
O1  1.0  0.6756403075590769  0.3562888352338112  0.5786480480464996  Uiso  ?  O
O1  1.0  0.6274306239176697  0.32102711707111314  0.5719469379172902  Uiso  ?  O
O1  1.0  0.6668430355070618  0.3233561638353844  0.5542707225949897  Uiso  ?  O
O1  1.0  0.6527703636177786  0.3252438307086117  0.6243415606614425  Uiso  ?  O
O1  1.0  0.686605627807118  0.33005355631864436  0.6075610146562406  Uiso  ?  O
O1  1.0  0.6422024622007538  0.29195456777102974  0.5972475995901679  Uiso  ?  O
O1  1.0  0.6824824523078635  0.29684516479209344  0.5815239048231543  Uiso  ?  O
Ce1  1.0  0.5960729771131272  0.31606162031390755  0.5518145023856469  Uiso  ?  Ce
Ce1  1.0  0.6485709373085132  0.29532393453843364  0.5644357926045804  Uiso  ?  Ce
Ce1  1.0  0.621165107936744  0.2871691552943415  0.5091637293173297  Uiso  ?  Ce
O1  1.0  0.6196481133439737  0.28684878767087185  0.5445587642797651  Uiso  ?  O
O1  1.0  0.6506440374063498  0.28959215406973066  0.5249806535132006  Uiso  ?  O
O1  1.0  0.7084688383979293  0.3673646378896652  0.7599226216246555  Uiso  ?  O
Ce1  1.0  0.6660362984242898  0.3301618842548581  0.713242545664758  Uiso  ?  Ce
Ce1  1.0  0.6899475678670697  0.3592165180740645  0.6705590305849863  Uiso  ?  Ce
O1  1.0  0.6824600550109068  0.3657219279087552  0.7044192572080612  Uiso  ?  O
O1  1.0  0.6720145952433393  0.3272094956467588  0.6791214097547853  Uiso  ?  O
O1  1.0  0.7123846234548111  0.3338449621276932  0.6611910533509194  Uiso  ?  O
O1  1.0  0.700936399821279  0.3357882835006949  0.7318749244612934  Uiso  ?  O
O1  1.0  0.6910634327294063  0.30305698605355075  0.7031153208188196  Uiso  ?  O
O1  1.0  0.7268068676498863  0.30556518184422266  0.6898259122380244  Uiso  ?  O
Ce1  1.0  0.6431583151109654  0.32553908195151693  0.6584689423070651  Uiso  ?  Ce
Ce1  1.0  0.695834015774564  0.3032717971848323  0.671274880935798  Uiso  ?  Ce
Ce1  1.0  0.6735228902543984  0.2978192278923296  0.6183771550203738  Uiso  ?  Ce
O1  1.0  0.6642776230675764  0.2974798941064052  0.6539881676308138  Uiso  ?  O
O1  1.0  0.7044318936264902  0.30579371156953283  0.6392968239538992  Uiso  ?  O
Ce1  1.0  0.6923441123850265  0.3357155554519079  0.7705346926492199  Uiso  ?  Ce
Ce1  1.0  0.7212839391218724  0.30712241079702585  0.7302452533882382  Uiso  ?  Ce
O1  1.0  0.7151847360698081  0.30577770209554156  0.7585489797981434  Uiso  ?  O
O1  1.0  0.5501296161422283  0.3582086272774131  0.2104523180186628  Uiso  ?  O
O1  1.0  0.5866404239761985  0.36028660747008406  0.19251884872353997  Uiso  ?  O
O1  1.0  0.5397302214376277  0.32615866398964716  0.1850417353282453  Uiso  ?  O
Ce1  1.0  0.5668638410255714  0.36412561328645104  0.2971369976961933  Uiso  ?  Ce
O1  1.0  0.5742118449905562  0.3593826980745324  0.2659289929138212  Uiso  ?  O
O1  1.0  0.6121570008508453  0.36860897684196153  0.245677216920979  Uiso  ?  O
O1  1.0  0.600226323428777  0.36785859981301333  0.3149693850068514  Uiso  ?  O
O1  1.0  0.5865203671676056  0.33446434682038867  0.29093635909107457  Uiso  ?  O
O1  1.0  0.6279274054322347  0.33987731427367346  0.2725114786527581  Uiso  ?  O
Ce1  1.0  0.5439592400349446  0.3610908739452058  0.24556554448971515  Uiso  ?  Ce
Ce1  1.0  0.5479542191195692  0.3032933507968308  0.24714202497354076  Uiso  ?  Ce
Ce1  1.0  0.596631007216115  0.33206959298845745  0.25310648332723035  Uiso  ?  Ce
Ce1  1.0  0.5724658125546063  0.3292730051114499  0.20235065740234368  Uiso  ?  Ce
O1  1.0  0.5645082479500533  0.332198050219081  0.2356667457521388  Uiso  ?  O
O1  1.0  0.6058014620499002  0.3366954857770507  0.21972551833845905  Uiso  ?  O
O1  1.0  0.5569714331707413  0.2992154685208818  0.21078837378000215  Uiso  ?  O
O1  1.0  0.5957130656839169  0.3026238867610451  0.19214654364859662  Uiso  ?  O
O1  1.0  0.5814096379819688  0.30281737406316517  0.26465227499623856  Uiso  ?  O
O1  1.0  0.6205756582631814  0.305775768273659  0.2446998162008354  Uiso  ?  O
Ce1  1.0  0.5242811775485811  0.2961509273089642  0.19378283849173403  Uiso  ?  Ce
O1  1.0  0.6357239722757303  0.3476399643027674  0.39998353252085256  Uiso  ?  O
O1  1.0  0.6766744188143837  0.3473232280087164  0.3812892111042057  Uiso  ?  O
Ce1  1.0  0.598609341482832  0.3062535144587152  0.35494795943612295  Uiso  ?  Ce
Ce1  1.0  0.6446964225405677  0.3456252745622884  0.36257846642367864  Uiso  ?  Ce
Ce1  1.0  0.6200706753336798  0.33677340373716613  0.30464341922234306  Uiso  ?  Ce
O1  1.0  0.6156109244578133  0.33943166639252537  0.3455140082555567  Uiso  ?  O
O1  1.0  0.6525273597459721  0.3435466834185913  0.32856956667819354  Uiso  ?  O
O1  1.0  0.6039418940615637  0.3060599540109655  0.3180549941859124  Uiso  ?  O
O1  1.0  0.6432608372910124  0.3098526853950766  0.3015762443774067  Uiso  ?  O
O1  1.0  0.6280846816692399  0.3138614953460959  0.37282328064796  Uiso  ?  O
O1  1.0  0.6675548564448635  0.3173093385177988  0.3588891409667381  Uiso  ?  O
Ce1  1.0  0.57104728184737  0.3071259534606761  0.30196783521685483  Uiso  ?  Ce
O1  1.0  0.6872760135979952  0.35369693518549894  0.5067846743830775  Uiso  ?  O
O1  1.0  0.7215168551226065  0.35809301091667867  0.48751336920448884  Uiso  ?  O
Ce1  1.0  0.6463725820039414  0.32175828680255286  0.4638130789209499  Uiso  ?  Ce
Ce1  1.0  0.6954875365426313  0.3567212208812893  0.47291585559943355  Uiso  ?  Ce
Ce1  1.0  0.6708135637157254  0.3509073937595895  0.41898298220280505  Uiso  ?  Ce
O1  1.0  0.6625236395197006  0.3523104181806129  0.4517148887613064  Uiso  ?  O
O1  1.0  0.7004399792282603  0.3552209253520774  0.43457815461276017  Uiso  ?  O
O1  1.0  0.6537785670986149  0.31854207324764944  0.42707472799701285  Uiso  ?  O
O1  1.0  0.6919477412171574  0.32064915036824887  0.41044283929762454  Uiso  ?  O
O1  1.0  0.6774044270398851  0.3261329701516637  0.482366416464903  Uiso  ?  O
O1  1.0  0.7162314865864701  0.32706333282361166  0.4677761079898191  Uiso  ?  O
O1  1.0  0.6684387092976912  0.2921546330574496  0.4544214334312505  Uiso  ?  O
O1  1.0  0.7102717170337524  0.2939182954802737  0.43630261817361143  Uiso  ?  O
Ce1  1.0  0.6202349843013968  0.3136695035512816  0.4101825976301399  Uiso  ?  Ce
Ce1  1.0  0.6774109032511194  0.2876195073830637  0.41754751804161544  Uiso  ?  Ce
O1  1.0  0.6470484491674974  0.2850674903239133  0.4059363451559859  Uiso  ?  O
O1  1.0  0.6826225087607459  0.2880341359519326  0.38549754159612654  Uiso  ?  O
Ce1  1.0  0.6962178653498896  0.32703623260086817  0.5716446608030095  Uiso  ?  Ce
Ce1  1.0  0.7192408373539515  0.360217249521928  0.526770093107891  Uiso  ?  Ce
O1  1.0  0.7125223078647005  0.36084276837883705  0.5615041898232795  Uiso  ?  O
O1  1.0  0.702009542262851  0.32825364349890473  0.5357001332705259  Uiso  ?  O
O1  1.0  0.7384744835516416  0.33174487300070515  0.518963495385909  Uiso  ?  O
O1  1.0  0.7259471142357743  0.32963348250545177  0.591084249049676  Uiso  ?  O
O1  1.0  0.7191304167425009  0.30067401092217033  0.5603731561808543  Uiso  ?  O
O1  1.0  0.7556176283730741  0.3052964915305893  0.5450682533804464  Uiso  ?  O
Ce1  1.0  0.6718476719263919  0.32433785573406415  0.5170108210564444  Uiso  ?  Ce
Ce1  1.0  0.7261732928288035  0.29891495491557213  0.5276280902238204  Uiso  ?  Ce
Ce1  1.0  0.702921678774946  0.29738756305203823  0.4713132628448519  Uiso  ?  Ce
O1  1.0  0.6952899055861506  0.29404128851016337  0.5107249248595493  Uiso  ?  O
O1  1.0  0.7359748818019908  0.3019151385666093  0.49475907816796066  Uiso  ?  O
Ce1  1.0  0.7224166955624722  0.33489043371096616  0.6235642451266161  Uiso  ?  Ce
Ce1  1.0  0.75159707616367  0.30391148758757647  0.5827435909672039  Uiso  ?  Ce
O1  1.0  0.7411469910891294  0.30605883407428364  0.6169113563342508  Uiso  ?  O
O1  1.0  0.6653108869418384  0.34348151835941465  0.25568653589607393  Uiso  ?  O
O1  1.0  0.7045379056365845  0.34968582448918806  0.2384366871590189  Uiso  ?  O
Ce1  1.0  0.6193543334999624  0.36463748604634544  0.21032663235528112  Uiso  ?  Ce
Ce1  1.0  0.6254524264099308  0.30773830608978686  0.21054180134081762  Uiso  ?  Ce
Ce1  1.0  0.6729209306214377  0.344296006544893  0.2220689938332944  Uiso  ?  Ce
Ce1  1.0  0.6513337741501124  0.3371554375737903  0.16499059826681917  Uiso  ?  Ce
O1  1.0  0.6433759537100597  0.3371387004699853  0.19922611426491083  Uiso  ?  O
O1  1.0  0.6777001858491045  0.34100117638191363  0.18570645864653157  Uiso  ?  O
O1  1.0  0.6340210159439137  0.306083265606062  0.17390850788756057  Uiso  ?  O
O1  1.0  0.6723209009620862  0.30958505877391324  0.15773956339993017  Uiso  ?  O
O1  1.0  0.6555143309244337  0.31026618490280533  0.23193106318700865  Uiso  ?  O
O1  1.0  0.6961944532848257  0.3137167020159946  0.2151257685689757  Uiso  ?  O
Ce1  1.0  0.5978117127114689  0.3022847522503472  0.156053548634467  Uiso  ?  Ce
O1  1.0  0.7131744311921149  0.3540769608751201  0.36632516928887304  Uiso  ?  O
Ce1  1.0  0.6746477178551122  0.3168591876757879  0.3188962219923073  Uiso  ?  Ce
Ce1  1.0  0.7214355690123526  0.35046048204606023  0.32953365954188574  Uiso  ?  Ce
Ce1  1.0  0.6969315222264845  0.3476372041577523  0.27236577996459016  Uiso  ?  Ce
O1  1.0  0.688782616152093  0.34871410181214674  0.31177760110310404  Uiso  ?  O
O1  1.0  0.7254851992693573  0.3500086254181017  0.2939360643229031  Uiso  ?  O
O1  1.0  0.6812698011907838  0.3174475850419818  0.285987811457702  Uiso  ?  O
O1  1.0  0.7170576999699283  0.3201874255847997  0.2655589521427717  Uiso  ?  O
O1  1.0  0.7055100273140614  0.32175971355754396  0.33873859352361596  Uiso  ?  O
O1  1.0  0.7406998043486968  0.32503807193909845  0.32337816997604624  Uiso  ?  O
O1  1.0  0.6974471973831028  0.28665780056633483  0.31057535234361866  Uiso  ?  O
O1  1.0  0.7354447711477378  0.28983138944039405  0.29774608768639843  Uiso  ?  O
Ce1  1.0  0.6478782024761849  0.31389467062954  0.26747734515359456  Uiso  ?  Ce
Ce1  1.0  0.7053519683604265  0.28805034163415294  0.27626900569152796  Uiso  ?  Ce
O1  1.0  0.7105085116107487  0.28692489672424293  0.23969467801637998  Uiso  ?  O
Ce1  1.0  0.7248972616803736  0.3246394216937319  0.4282248174535211  Uiso  ?  Ce
O1  1.0  0.7414162244840301  0.3570532644286359  0.41790617403389235  Uiso  ?  O
O1  1.0  0.7305377623501925  0.32436515297439106  0.3912722613163292  Uiso  ?  O
O1  1.0  0.7526135351962348  0.33023244324540274  0.44493489419300614  Uiso  ?  O
O1  1.0  0.7454198710651578  0.29793240468146714  0.42159838817731565  Uiso  ?  O
O1  1.0  0.7823279243369854  0.30247446646004217  0.4015901063228423  Uiso  ?  O
Ce1  1.0  0.7001937580023373  0.3213786978683788  0.3748400480668762  Uiso  ?  Ce
Ce1  1.0  0.7520532309191004  0.2971320967845444  0.38606659510226776  Uiso  ?  Ce
Ce1  1.0  0.7271330083634099  0.2923555795556137  0.3322354352316515  Uiso  ?  Ce
O1  1.0  0.7205065756734781  0.2921642818071608  0.36669023733694495  Uiso  ?  O
O1  1.0  0.7608873557440161  0.29389650512185855  0.3480356877369108  Uiso  ?  O
Ce1  1.0  0.7495871656067804  0.33056928886654574  0.4829130799590204  Uiso  ?  Ce
Ce1  1.0  0.7765436476347607  0.30063985123601633  0.43719185025532425  Uiso  ?  Ce
O1  1.0  0.7695839759071419  0.3039993628612831  0.47621630314709495  Uiso  ?  O
Ce1  1.0  0.7009306361849351  0.31499309576122697  0.17995554413991968  Uiso  ?  Ce
O1  1.0  0.7356523907028891  0.3161292565227717  0.1938107076530007  Uiso  ?  O
O1  1.0  0.7198355773994932  0.28819997968833816  0.1674935636823172  Uiso  ?  O
Ce1  1.0  0.7519049241518003  0.3253427201963314  0.28654975024557894  Uiso  ?  Ce
O1  1.0  0.7588874889092161  0.3258269330518634  0.24995137087972188  Uiso  ?  O
O1  1.0  0.7738566501736259  0.29685465701149055  0.27924433795747555  Uiso  ?  O
Ce1  1.0  0.7284448698952896  0.31972309208794264  0.23078465849852414  Uiso  ?  Ce
Ce1  1.0  0.7800626761721903  0.29427133646591996  0.24016239689541283  Uiso  ?  Ce
O1  1.0  0.7509497003177809  0.29113877492372653  0.22208282250921255  Uiso  ?  O
O1  1.0  0.17102477886197967  0.251406771074245  0.881446252750214  Uiso  ?  O
O1  1.0  0.16291070875650632  0.22044135314160793  0.8527449099579042  Uiso  ?  O
O1  1.0  0.18290977714886306  0.2752540195422318  0.7063306894985553  Uiso  ?  O
O1  1.0  0.1753619305073375  0.24674595963345955  0.6850572699703292  Uiso  ?  O
O1  1.0  0.16357320442104614  0.21039449189175966  0.6580163405509623  Uiso  ?  O
Ce1  1.0  0.1618364409061976  0.2787748839201513  0.8172688989665887  Uiso  ?  Ce
O1  1.0  0.16805145909359007  0.2794443568106076  0.7793742746462402  Uiso  ?  O
O1  1.0  0.21047762099167333  0.28148286541696665  0.7649790858858205  Uiso  ?  O
O1  1.0  0.19206913190503103  0.2806702540501951  0.8325306459256225  Uiso  ?  O
O1  1.0  0.18526099636049603  0.2530144174081883  0.8065172549979646  Uiso  ?  O
O1  1.0  0.22315891535841334  0.25365268459470003  0.791134325559295  Uiso  ?  O
Ce1  1.0  0.19178798515849238  0.25100458865207637  0.7746718413039488  Uiso  ?  Ce
Ce1  1.0  0.16601184148396178  0.24466903409101465  0.7198948437082855  Uiso  ?  Ce
O1  1.0  0.1979623576159038  0.24909748262927175  0.7372221080987004  Uiso  ?  O
O1  1.0  0.18697618742382682  0.21802326806335148  0.710170146021882  Uiso  ?  O
O1  1.0  0.1774845165304769  0.21695478123267173  0.7815885737584914  Uiso  ?  O
O1  1.0  0.21541249322912867  0.22324892460011395  0.7633151778568473  Uiso  ?  O
Ce1  1.0  0.18639362169849186  0.28270877665710115  0.8714728500251515  Uiso  ?  Ce
Ce1  1.0  0.19415765380742  0.22352337180955356  0.8724809408211447  Uiso  ?  Ce
Ce1  1.0  0.23932291369609443  0.25851878729617206  0.87957600263812  Uiso  ?  Ce
Ce1  1.0  0.21768319590631813  0.2529148323305935  0.825578195021084  Uiso  ?  Ce
O1  1.0  0.20705861072932916  0.2543844553711176  0.8594662922087044  Uiso  ?  O
O1  1.0  0.24932890464741644  0.2589551720020964  0.8462978453956442  Uiso  ?  O
O1  1.0  0.19828812073132907  0.2234937671429237  0.8369133066584717  Uiso  ?  O
O1  1.0  0.2394344995446988  0.2251820381664573  0.8178784687492806  Uiso  ?  O
O1  1.0  0.2628793542364084  0.23118511184171225  0.8726861225215387  Uiso  ?  O
Ce1  1.0  0.16953352722803203  0.22028390356555322  0.8180134153123155  Uiso  ?  Ce
O1  1.0  0.18710314944273634  0.2703355035885772  0.5105644152930895  Uiso  ?  O
O1  1.0  0.1716287283295947  0.26936247021481824  0.5838864474746166  Uiso  ?  O
O1  1.0  0.2101095955013227  0.2720530748757463  0.5664291903832179  Uiso  ?  O
O1  1.0  0.16305791762614166  0.23757371437137934  0.5577996507555787  Uiso  ?  O
O1  1.0  0.20049495349931978  0.24649726887541037  0.5404545754374509  Uiso  ?  O
Ce1  1.0  0.17037371332438941  0.23648743307533995  0.5217642277350626  Uiso  ?  Ce
O1  1.0  0.17744878836773767  0.2357979752496871  0.4851205760696545  Uiso  ?  O
O1  1.0  0.1675583729755929  0.20579942901001474  0.46069927684068823  Uiso  ?  O
O1  1.0  0.19143380335770685  0.21177392130197992  0.5157892556814019  Uiso  ?  O
Ce1  1.0  0.191088856233188  0.2760232902848356  0.6723227734806898  Uiso  ?  Ce
O1  1.0  0.1964395815558801  0.2757151035888517  0.637678211324135  Uiso  ?  O
O1  1.0  0.23108714346401482  0.27813904931033967  0.6212410161249287  Uiso  ?  O
O1  1.0  0.21918688920570675  0.28010927457274243  0.691844405135807  Uiso  ?  O
O1  1.0  0.25960668645451657  0.28318976088163655  0.6727507765739698  Uiso  ?  O
O1  1.0  0.2108126769568282  0.25119859218295393  0.6657026938550173  Uiso  ?  O
O1  1.0  0.252869197891182  0.2503734194455529  0.6452492019524022  Uiso  ?  O
Ce1  1.0  0.1651123587236259  0.27468776470556505  0.6217729479100697  Uiso  ?  Ce
Ce1  1.0  0.17416373485628708  0.21407523036290207  0.6227679443856435  Uiso  ?  Ce
Ce1  1.0  0.22120575960788874  0.24586294324475025  0.628401507496263  Uiso  ?  Ce
Ce1  1.0  0.1959529920789687  0.24464862204603388  0.5761692045248787  Uiso  ?  Ce
O1  1.0  0.18661083204691556  0.2451820065730491  0.6121605198766413  Uiso  ?  O
O1  1.0  0.22692313699569364  0.24867242055186317  0.5937573293889782  Uiso  ?  O
O1  1.0  0.18132528551444319  0.21067057411128184  0.588846864991351  Uiso  ?  O
O1  1.0  0.21711274054584814  0.21844048836142962  0.565836192192036  Uiso  ?  O
O1  1.0  0.20364225794656152  0.2168906492641618  0.63871939951821  Uiso  ?  O
O1  1.0  0.2416170735881013  0.21857579497738297  0.62303060053035  Uiso  ?  O
Ce1  1.0  0.24028298091075315  0.2858177441901148  0.7839755077163382  Uiso  ?  Ce
O1  1.0  0.24624362049783927  0.2859257989945362  0.746655587359126  Uiso  ?  O
O1  1.0  0.26215718133917854  0.25952463010072  0.7719596417233129  Uiso  ?  O
O1  1.0  0.2996943453936411  0.255374477652813  0.7556308534816774  Uiso  ?  O
Ce1  1.0  0.21363687892425476  0.28168129110980905  0.7266902829372385  Uiso  ?  Ce
Ce1  1.0  0.21979805437930705  0.2244914016609301  0.728895979028567  Uiso  ?  Ce
Ce1  1.0  0.2634026466756191  0.25737238311957084  0.7386698375792781  Uiso  ?  Ce
Ce1  1.0  0.24219695583688178  0.25220031831688994  0.6838702568723737  Uiso  ?  Ce
O1  1.0  0.23649331984278496  0.2501964932360504  0.7177584195440012  Uiso  ?  O
O1  1.0  0.2757164095322908  0.2574307305717139  0.7037148827195451  Uiso  ?  O
O1  1.0  0.2271412966549674  0.22362761780885831  0.6942757883317155  Uiso  ?  O
O1  1.0  0.26593269474456716  0.22577496863934765  0.6774467817221409  Uiso  ?  O
O1  1.0  0.25301827388567477  0.22573239067035908  0.7486178965440567  Uiso  ?  O
O1  1.0  0.2926038982919379  0.23079492952152808  0.7301959702858667  Uiso  ?  O
Ce1  1.0  0.19733446759479698  0.2170632635539466  0.6744585332888372  Uiso  ?  Ce
O1  1.0  0.31103573156783204  0.26641582649654405  0.8829028202309419  Uiso  ?  O
O1  1.0  0.34813200366969205  0.2725494412103372  0.8647657221488483  Uiso  ?  O
Ce1  1.0  0.27042633443739605  0.2332773113115895  0.835478307590136  Uiso  ?  Ce
Ce1  1.0  0.31502043812078795  0.26579474597866953  0.8453271592436994  Uiso  ?  Ce
Ce1  1.0  0.2894070345167633  0.2621001556128726  0.7892822673627741  Uiso  ?  Ce
O1  1.0  0.28495309092058946  0.2648581948849937  0.8261785679455899  Uiso  ?  O
O1  1.0  0.32349001909450886  0.2651251553279697  0.8106340694496971  Uiso  ?  O
O1  1.0  0.2759911052746848  0.2289464265292942  0.8024544847249355  Uiso  ?  O
O1  1.0  0.31409420722879106  0.23485887061437347  0.78664496182434  Uiso  ?  O
O1  1.0  0.29996706740779916  0.23504788678850003  0.8533499368574425  Uiso  ?  O
O1  1.0  0.34107447207439656  0.2378996162819498  0.8398717468962793  Uiso  ?  O
O1  1.0  0.2922102293756952  0.20407128440145436  0.8293398924730724  Uiso  ?  O
O1  1.0  0.3294311440138724  0.20827808386123145  0.8132050930694358  Uiso  ?  O
Ce1  1.0  0.24582366810877335  0.22625701276089494  0.7828252290732024  Uiso  ?  Ce
Ce1  1.0  0.3243840264046752  0.2078390528712188  0.8456675124983711  Uiso  ?  Ce
O1  1.0  0.3188225140083596  0.20898388552798172  0.8841959751878785  Uiso  ?  O
O1  1.0  0.3514310115715278  0.2130241848340608  0.8668225565134351  Uiso  ?  O
O1  1.0  0.1974827022047569  0.266509413899313  0.43968628022512773  Uiso  ?  O
O1  1.0  0.23645168994296004  0.26831467448796065  0.42181917426585797  Uiso  ?  O
O1  1.0  0.22864138444557947  0.2414335454561876  0.39608935097068226  Uiso  ?  O
Ce1  1.0  0.21633035369198492  0.27419300550253806  0.530003783238955  Uiso  ?  Ce
O1  1.0  0.22334828932864648  0.2730790875719676  0.4933660571288284  Uiso  ?  O
O1  1.0  0.26445705186831303  0.27618363964661274  0.4768977107595213  Uiso  ?  O
O1  1.0  0.24773853123177908  0.27723522168080134  0.5478615746932021  Uiso  ?  O
O1  1.0  0.28719640811538744  0.2796583835392195  0.5291412427646048  Uiso  ?  O
O1  1.0  0.2365185515732505  0.24878818037344144  0.5233459278327064  Uiso  ?  O
O1  1.0  0.2770911598343359  0.2479873870418571  0.5074232054728016  Uiso  ?  O
Ce1  1.0  0.192222360829757  0.2701004889352317  0.4765223231779225  Uiso  ?  Ce
Ce1  1.0  0.1962646339491509  0.2119251461312114  0.47692944677774035  Uiso  ?  Ce
Ce1  1.0  0.2467763875810937  0.2469467616871606  0.4918881456679473  Uiso  ?  Ce
Ce1  1.0  0.21934574532218604  0.2422740349362136  0.4325297604817939  Uiso  ?  Ce
O1  1.0  0.2139974283326121  0.23881718587828316  0.4660116088903753  Uiso  ?  O
O1  1.0  0.253618523641727  0.24218990792255676  0.44865255942235466  Uiso  ?  O
O1  1.0  0.20717964024940091  0.20619749371959875  0.44292075992895  Uiso  ?  O
O1  1.0  0.2437002241797775  0.21189252286359223  0.4242158994153921  Uiso  ?  O
O1  1.0  0.22997704716180964  0.21423707824305166  0.49741391311657907  Uiso  ?  O
O1  1.0  0.2690169717389286  0.21766094979269465  0.47770606931280324  Uiso  ?  O
Ce1  1.0  0.2693752095478124  0.28068548708002794  0.6409103291607562  Uiso  ?  Ce
O1  1.0  0.27323952571826915  0.2844729283617967  0.6026302767976943  Uiso  ?  O
O1  1.0  0.28744017653300485  0.2561148431096916  0.6294273915613536  Uiso  ?  O
O1  1.0  0.3271141430222899  0.2593744406296454  0.615266495845303  Uiso  ?  O
Ce1  1.0  0.24053791312994943  0.27643114538781144  0.5838469357562343  Uiso  ?  Ce
Ce1  1.0  0.2471583669618973  0.2194100159943347  0.5858192772633567  Uiso  ?  Ce
Ce1  1.0  0.29309887048530303  0.25364753212105234  0.5919038696303092  Uiso  ?  Ce
Ce1  1.0  0.2704963555052387  0.25072065654649833  0.5413427782498925  Uiso  ?  Ce
O1  1.0  0.2618944381986807  0.2509228694933235  0.5804010839919638  Uiso  ?  O
O1  1.0  0.3001204527758788  0.2540506463155148  0.559715580214307  Uiso  ?  O
O1  1.0  0.2537654392265048  0.2157760287878085  0.5509398473450461  Uiso  ?  O
O1  1.0  0.29198879276240425  0.22588647624984814  0.5325763666293447  Uiso  ?  O
O1  1.0  0.27954263088408704  0.22372176556183665  0.606147126029683  Uiso  ?  O
O1  1.0  0.31563119554905045  0.22810866637598512  0.5865537933239593  Uiso  ?  O
Ce1  1.0  0.22355591508211414  0.21649481265801357  0.5312441798606637  Uiso  ?  Ce
O1  1.0  0.33852961165355994  0.26368629402080923  0.7408460819960581  Uiso  ?  O
O1  1.0  0.3733210370254962  0.2667514174857725  0.7181298481609445  Uiso  ?  O
Ce1  1.0  0.29560645804654423  0.2264991014463577  0.694107165406532  Uiso  ?  Ce
Ce1  1.0  0.3449138994174519  0.26589203083306984  0.7002942866238757  Uiso  ?  Ce
Ce1  1.0  0.32150849625281724  0.2611260414054819  0.6460855176393873  Uiso  ?  Ce
O1  1.0  0.3123163709230407  0.2624814259973022  0.6849004221049433  Uiso  ?  O
O1  1.0  0.3505339585680882  0.26441067985874445  0.6665042740693884  Uiso  ?  O
O1  1.0  0.3022797854980611  0.2288795930444041  0.6578261791800061  Uiso  ?  O
O1  1.0  0.3421580483974722  0.2326339534958023  0.6424086417331669  Uiso  ?  O
O1  1.0  0.3256577214413811  0.23022251377230282  0.710669128680331  Uiso  ?  O
O1  1.0  0.36654831929863163  0.23470842125117738  0.6962175952365537  Uiso  ?  O
O1  1.0  0.3575364392543031  0.2021649961126318  0.667357600211079  Uiso  ?  O
Ce1  1.0  0.27326627990833374  0.22537972508888943  0.6400513678652568  Uiso  ?  Ce
O1  1.0  0.3874885695094203  0.2728901472341025  0.84887033029921  Uiso  ?  O
O1  1.0  0.4232694375979529  0.2772929153307227  0.8287780072482951  Uiso  ?  O
Ce1  1.0  0.34636248316077134  0.2370810524690344  0.8031015422242874  Uiso  ?  Ce
Ce1  1.0  0.3900674682090842  0.27251099593610084  0.8126321919809378  Uiso  ?  Ce
Ce1  1.0  0.3669120915938059  0.2701732028545591  0.7551998342645165  Uiso  ?  Ce
O1  1.0  0.36120863992307456  0.27321785587392405  0.7937554346874592  Uiso  ?  O
O1  1.0  0.3964884214018494  0.2727421461287244  0.7753334995087138  Uiso  ?  O
O1  1.0  0.3513555336797274  0.23632726939630538  0.7650286418666077  Uiso  ?  O
O1  1.0  0.3909583148248537  0.2424135306739462  0.7493185137917443  Uiso  ?  O
O1  1.0  0.3783546637237156  0.23944211156609788  0.8184554025712582  Uiso  ?  O
O1  1.0  0.4186142032128179  0.24637921123044607  0.8042839211423116  Uiso  ?  O
O1  1.0  0.3695498313369257  0.20920255745304228  0.7938918680519904  Uiso  ?  O
O1  1.0  0.40488545576913554  0.21214638274241257  0.7793014739057164  Uiso  ?  O
Ce1  1.0  0.3203128370864391  0.23228359983018224  0.7486589367517352  Uiso  ?  Ce
Ce1  1.0  0.37504411623262346  0.21119189627658588  0.7589744248223038  Uiso  ?  Ce
Ce1  1.0  0.34857077649399865  0.2046204433366748  0.7065109283775722  Uiso  ?  Ce
O1  1.0  0.34357270457928607  0.20238513151589874  0.739432330128393  Uiso  ?  O
O1  1.0  0.3810052628361681  0.2121705618750726  0.7250447568312705  Uiso  ?  O
Ce1  1.0  0.41735846754880457  0.2781698410180861  0.8662656034886087  Uiso  ?  Ce
O1  1.0  0.4472841533311536  0.2801916503830705  0.8831946339176838  Uiso  ?  O
O1  1.0  0.4009289470968101  0.24648864488546346  0.8736717688810813  Uiso  ?  O
O1  1.0  0.4386377173252743  0.25055201011166744  0.8579974082820755  Uiso  ?  O
O1  1.0  0.45520900132900755  0.2241833437928054  0.8856981469214136  Uiso  ?  O
Ce1  1.0  0.37008851969410583  0.24113142994132755  0.8590338287239087  Uiso  ?  Ce
Ce1  1.0  0.42504408881874367  0.22150509097211526  0.8689191204539715  Uiso  ?  Ce
Ce1  1.0  0.40011778505902934  0.21405872116724442  0.8138282375098392  Uiso  ?  Ce
O1  1.0  0.3920168728042059  0.2153336261019517  0.8481014041144025  Uiso  ?  O
O1  1.0  0.43303267404140533  0.2171773690370261  0.8318021451995795  Uiso  ?  O
O1  1.0  0.27720025119505337  0.27331929600851296  0.40478418003364314  Uiso  ?  O
O1  1.0  0.31260358283598877  0.28064707395569327  0.3882304535711058  Uiso  ?  O
O1  1.0  0.2681248025803607  0.24278081458967682  0.38086990144147365  Uiso  ?  O
O1  1.0  0.3053069080912094  0.24258874397431937  0.3598647937442331  Uiso  ?  O
O1  1.0  0.25727331171838574  0.21332537146965497  0.3526898026044999  Uiso  ?  O
O1  1.0  0.29201889174412066  0.21482394021506335  0.3371448203729366  Uiso  ?  O
Ce1  1.0  0.2927255703397919  0.2815248171194106  0.49643531547035996  Uiso  ?  Ce
O1  1.0  0.2986488511104692  0.27744164227840945  0.46197311797549334  Uiso  ?  O
O1  1.0  0.3368937597842593  0.28407217500412996  0.4443521268351786  Uiso  ?  O
O1  1.0  0.32449508663264864  0.2857281207876644  0.5130354974848378  Uiso  ?  O
O1  1.0  0.31554679600667795  0.253263500411283  0.4866176637465825  Uiso  ?  O
O1  1.0  0.35421535001397575  0.25560982367578555  0.46841133079283576  Uiso  ?  O
Ce1  1.0  0.27131333105110145  0.2746414211176744  0.4413923596858388  Uiso  ?  Ce
Ce1  1.0  0.27753008247705085  0.21705600953482965  0.4409365328054891  Uiso  ?  Ce
Ce1  1.0  0.32338702634061856  0.2508301747688559  0.4525154355793573  Uiso  ?  Ce
Ce1  1.0  0.29991323277681464  0.24706189544680868  0.39794949386207773  Uiso  ?  Ce
O1  1.0  0.2906812114157704  0.24860052806995267  0.43272293154184543  Uiso  ?  O
O1  1.0  0.32702753448124705  0.24990489373773703  0.4145938452075782  Uiso  ?  O
O1  1.0  0.2835857999218757  0.2167507095576977  0.40805659570628733  Uiso  ?  O
O1  1.0  0.32021147964076957  0.21969039775535534  0.39036262240222647  Uiso  ?  O
O1  1.0  0.30404178457415215  0.22013131213960982  0.45983788945017146  Uiso  ?  O
O1  1.0  0.3453882195612135  0.22468136578665593  0.44557465220362075  Uiso  ?  O
Ce1  1.0  0.2520898583580562  0.21078159234254493  0.38650243002865103  Uiso  ?  Ce
O1  1.0  0.36660665945325954  0.2638363824087132  0.59626184758877  Uiso  ?  O
O1  1.0  0.4046958629072632  0.26587792754537365  0.57819001739296  Uiso  ?  O
Ce1  1.0  0.31443338593333797  0.2904529138874211  0.5501478957086792  Uiso  ?  Ce
Ce1  1.0  0.3245685623964264  0.22595573927884602  0.5517541165539399  Uiso  ?  Ce
Ce1  1.0  0.37062479702390194  0.2601077489911934  0.5574489488184505  Uiso  ?  Ce
Ce1  1.0  0.3470820516101643  0.2566060382151114  0.502958519044734  Uiso  ?  Ce
O1  1.0  0.3386160847459922  0.25702309947191626  0.5418420700627825  Uiso  ?  O
O1  1.0  0.3799937009269005  0.2627016475122384  0.5263173780061178  Uiso  ?  O
O1  1.0  0.3320094301721477  0.22584769863602633  0.5199846196814212  Uiso  ?  O
O1  1.0  0.3690191238824931  0.23004492020402312  0.4968862843712604  Uiso  ?  O
O1  1.0  0.3551922436961534  0.23229771302263305  0.568277997739986  Uiso  ?  O
O1  1.0  0.39309331154088467  0.23229758768113515  0.5517729413525507  Uiso  ?  O
Ce1  1.0  0.2997370827862151  0.22142389721658975  0.49777113419617985  Uiso  ?  Ce
O1  1.0  0.41178581173147255  0.2711762302987173  0.7017853954706433  Uiso  ?  O
O1  1.0  0.4504316457675675  0.2760848960037414  0.6852656204327826  Uiso  ?  O
Ce1  1.0  0.37183848514215756  0.2348898409763613  0.6637753476409836  Uiso  ?  Ce
Ce1  1.0  0.4206025935236913  0.2687863803221908  0.6685050287679417  Uiso  ?  Ce
Ce1  1.0  0.398518837759954  0.26779438743458184  0.612739408935668  Uiso  ?  Ce
O1  1.0  0.38828659189005577  0.2660416467996926  0.649855958335036  Uiso  ?  O
O1  1.0  0.42987671575560926  0.27071512393481073  0.6321409503643484  Uiso  ?  O
O1  1.0  0.3804916387048188  0.235438133002413  0.6229443701729958  Uiso  ?  O
O1  1.0  0.4173584863131658  0.23755964394430207  0.6073779446226882  Uiso  ?  O
O1  1.0  0.4060172584499039  0.23899245630247362  0.6782368066564166  Uiso  ?  O
O1  1.0  0.4373051801330754  0.24522759109027137  0.6622185991260868  Uiso  ?  O
O1  1.0  0.39681966412668285  0.20957576093128225  0.6504293768193117  Uiso  ?  O
O1  1.0  0.4313368371872714  0.21129497216689433  0.6341648731496862  Uiso  ?  O
Ce1  1.0  0.34572762984884886  0.23154874168823297  0.6093784036223283  Uiso  ?  Ce
Ce1  1.0  0.4016367888325724  0.20792813714216504  0.6169810033699944  Uiso  ?  Ce
O1  1.0  0.3706570830315603  0.20326563805620138  0.5980391214121102  Uiso  ?  O
O1  1.0  0.4101666399370945  0.20708755828913863  0.5812438882364448  Uiso  ?  O
O1  1.0  0.4610531918095851  0.2814212978016502  0.8123376951782004  Uiso  ?  O
O1  1.0  0.5005516220635133  0.2851084192215649  0.7930261624595568  Uiso  ?  O
Ce1  1.0  0.4224834937733596  0.24629069157284583  0.7684021609033633  Uiso  ?  Ce
Ce1  1.0  0.46816697700985005  0.2800156491520466  0.7757154567920395  Uiso  ?  Ce
Ce1  1.0  0.44377606395581726  0.27690715980731107  0.721586845632772  Uiso  ?  Ce
O1  1.0  0.4382569742262146  0.27650526256401714  0.7587898642059115  Uiso  ?  O
O1  1.0  0.47658192367701313  0.2797920150597816  0.7412821495352514  Uiso  ?  O
O1  1.0  0.42885991158845593  0.24382631383770081  0.7310512188361215  Uiso  ?  O
O1  1.0  0.46716516547182174  0.24722492742244812  0.7134559180702141  Uiso  ?  O
O1  1.0  0.45306560716012406  0.24968492474342804  0.7874579330779279  Uiso  ?  O
O1  1.0  0.49234508347133665  0.25303191283388293  0.7685715938569534  Uiso  ?  O
O1  1.0  0.4419882333659149  0.21569292030192094  0.7602818782266628  Uiso  ?  O
O1  1.0  0.4818460094620423  0.22038958408841308  0.7428940288646988  Uiso  ?  O
Ce1  1.0  0.3953310843117933  0.23875856836212386  0.714426183997601  Uiso  ?  Ce
Ce1  1.0  0.4502903882384151  0.21710619330675401  0.7259896399296183  Uiso  ?  Ce
Ce1  1.0  0.4275982956752265  0.21579554626811065  0.6664587762920803  Uiso  ?  Ce
O1  1.0  0.4196353816808644  0.21136963640522333  0.7019334346469946  Uiso  ?  O
O1  1.0  0.4544939715329363  0.217885608230372  0.6901664829657204  Uiso  ?  O
Ce1  1.0  0.4716245616379568  0.25448075863047226  0.8747412342467267  Uiso  ?  Ce
Ce1  1.0  0.49517261822639713  0.2850514505843147  0.8282277290502097  Uiso  ?  Ce
O1  1.0  0.47694708631802885  0.25317133959766247  0.8402203675340167  Uiso  ?  O
O1  1.0  0.5186016809077446  0.25758375792722055  0.8209918076982358  Uiso  ?  O
O1  1.0  0.5418059189892882  0.2623623252116444  0.8769072839538742  Uiso  ?  O
O1  1.0  0.49258396812001615  0.2290367394919979  0.8680075295066205  Uiso  ?  O
O1  1.0  0.5312740733237773  0.23116336329840081  0.8498409904766047  Uiso  ?  O
Ce1  1.0  0.4463810342861117  0.2500448702316937  0.8203199284102713  Uiso  ?  Ce
Ce1  1.0  0.49920501831276  0.22520310887069975  0.8329782413511225  Uiso  ?  Ce
Ce1  1.0  0.47196147067891636  0.2245056428510487  0.7801027952218763  Uiso  ?  Ce
O1  1.0  0.4692832685285474  0.22028004625449765  0.812946281461362  Uiso  ?  O
O1  1.0  0.5053917751893372  0.22316334900983797  0.7962145236939282  Uiso  ?  O
Ce1  1.0  0.5269794732429495  0.22755180921956555  0.8874622652981335  Uiso  ?  Ce
O1  1.0  0.5474292352347858  0.20082768789727304  0.882306342849201  Uiso  ?  O
Ce1  1.0  0.3215379419228889  0.27599986311329683  0.35261366838253777  Uiso  ?  Ce
O1  1.0  0.35445413014667687  0.28067060601388194  0.3696340448475994  Uiso  ?  O
O1  1.0  0.340673523427036  0.2513352937949744  0.3437711539496933  Uiso  ?  O
O1  1.0  0.380860314864885  0.25511639377369405  0.3271682218666373  Uiso  ?  O
Ce1  1.0  0.3500822825339382  0.249670641716828  0.30986595388313404  Uiso  ?  Ce
O1  1.0  0.33406017187512177  0.2174056365847156  0.3181623103170377  Uiso  ?  O
O1  1.0  0.37077591053653003  0.22375900060052611  0.2981508461728585  Uiso  ?  O
O1  1.0  0.39134026856168685  0.2603122848117885  0.4532356704840001  Uiso  ?  O
O1  1.0  0.428499817708925  0.2633294664659919  0.4351808479669566  Uiso  ?  O
Ce1  1.0  0.3455534685990901  0.2804258908508625  0.4073180333341496  Uiso  ?  Ce
Ce1  1.0  0.35271245097772663  0.2256064226926025  0.4093738710109412  Uiso  ?  Ce
Ce1  1.0  0.39897640276021923  0.26127951115721587  0.4180656946189436  Uiso  ?  Ce
Ce1  1.0  0.3779027855781164  0.2549215357363101  0.3617447905616642  Uiso  ?  Ce
O1  1.0  0.36653593256824374  0.2560588164422663  0.3982541492347916  Uiso  ?  O
O1  1.0  0.407454315315182  0.26053350543309545  0.37838136628816166  Uiso  ?  O
O1  1.0  0.35875467341774375  0.2265139407524206  0.37240004946210226  Uiso  ?  O
O1  1.0  0.3956947449251023  0.2276303060746482  0.3547492135879356  Uiso  ?  O
O1  1.0  0.38446192153679887  0.2278605185810499  0.42935775520357566  Uiso  ?  O
O1  1.0  0.4199678188952568  0.23321726577639815  0.40732542233201946  Uiso  ?  O
Ce1  1.0  0.3290756128710535  0.21832635383262375  0.3566381406829155  Uiso  ?  Ce
O1  1.0  0.43890330742238115  0.268186396505645  0.5611370015472225  Uiso  ?  O
O1  1.0  0.477849946152144  0.27354950050138965  0.544155738235716  Uiso  ?  O
Ce1  1.0  0.3997028195801855  0.2342473624399384  0.5168559014748977  Uiso  ?  Ce
Ce1  1.0  0.4477879172276347  0.27017800792447466  0.5251798495282947  Uiso  ?  Ce
Ce1  1.0  0.42591837410739675  0.26408402636425216  0.46798067845608493  Uiso  ?  Ce
O1  1.0  0.4148932645252559  0.26448847495628147  0.5044698544802566  Uiso  ?  O
O1  1.0  0.4533304496977066  0.2682479213768024  0.49061209516982934  Uiso  ?  O
O1  1.0  0.40733633510341233  0.2348632714115141  0.4813220292665379  Uiso  ?  O
O1  1.0  0.4468869817966001  0.23514120368966135  0.46481529047430536  Uiso  ?  O
O1  1.0  0.43158965808880145  0.23478525086667132  0.5331817742432192  Uiso  ?  O
O1  1.0  0.4693140789614089  0.24235394087186138  0.5163825997096492  Uiso  ?  O
O1  1.0  0.42203175697437073  0.2074415034626801  0.5062800598043733  Uiso  ?  O
O1  1.0  0.46114110675408804  0.21004666174375006  0.4937955378961245  Uiso  ?  O
Ce1  1.0  0.3767896785369521  0.22998260896450315  0.46206995251227007  Uiso  ?  Ce
Ce1  1.0  0.43170381730853075  0.20338755435874112  0.47301479900290866  Uiso  ?  Ce
O1  1.0  0.4370682006217261  0.20662212174856143  0.43613070803758036  Uiso  ?  O
O1  1.0  0.49151193591734355  0.27862763354166203  0.6705520027535036  Uiso  ?  O
O1  1.0  0.5278822146053473  0.28333517703652356  0.647757182257644  Uiso  ?  O
Ce1  1.0  0.4503847267405358  0.24472523746899835  0.6224372262558979  Uiso  ?  Ce
Ce1  1.0  0.4970445473447841  0.27958406526206275  0.6330673937655638  Uiso  ?  Ce
Ce1  1.0  0.4715705872935242  0.27228146885406757  0.5805142287718921  Uiso  ?  Ce
O1  1.0  0.46428105997485064  0.2752151208905288  0.6159867196215115  Uiso  ?  O
O1  1.0  0.5025231381546599  0.2784524324780513  0.5960060339028993  Uiso  ?  O
O1  1.0  0.45580016932099565  0.24405722397498616  0.5858053024228915  Uiso  ?  O
O1  1.0  0.49308255602849405  0.2483146836403217  0.5714456334962217  Uiso  ?  O
O1  1.0  0.48282675090898214  0.24642088265180231  0.6409410320247101  Uiso  ?  O
O1  1.0  0.521051916247869  0.252338520511849  0.6275021866063216  Uiso  ?  O
O1  1.0  0.4717568208997293  0.21616795064813915  0.6164907968017923  Uiso  ?  O
O1  1.0  0.5092677896237499  0.21987566732891933  0.5987153497956201  Uiso  ?  O
Ce1  1.0  0.425144256525049  0.23872353824651496  0.5702273596512906  Uiso  ?  Ce
Ce1  1.0  0.47997066961875545  0.21501276720260187  0.5807434751029366  Uiso  ?  Ce
Ce1  1.0  0.4578097979239181  0.20923810748865218  0.529883858667694  Uiso  ?  Ce
O1  1.0  0.44626098724596786  0.21009023379711947  0.5637864830503867  Uiso  ?  O
O1  1.0  0.4867124415510864  0.2158023054570854  0.5454223378575968  Uiso  ?  O
Ce1  1.0  0.5008257661800123  0.25458088978451704  0.732447322748617  Uiso  ?  Ce
Ce1  1.0  0.5234169746766326  0.2841083523382455  0.685687516459965  Uiso  ?  Ce
O1  1.0  0.51499127645226  0.28444908664616225  0.7221853922740515  Uiso  ?  O
O1  1.0  0.5030489699795415  0.2533782061661757  0.6986304388766051  Uiso  ?  O
O1  1.0  0.5444777366242255  0.254335429530626  0.6792823023281331  Uiso  ?  O
O1  1.0  0.5314983336864647  0.2565971301145388  0.7484701374709823  Uiso  ?  O
O1  1.0  0.5688401671501087  0.2591489889716402  0.7328563121938678  Uiso  ?  O
O1  1.0  0.520796301149406  0.22631895287275164  0.7265060613509262  Uiso  ?  O
O1  1.0  0.5589175525526094  0.23164094584537037  0.7071687594466082  Uiso  ?  O
Ce1  1.0  0.4718853657745559  0.2448700029830193  0.6771055010972584  Uiso  ?  Ce
Ce1  1.0  0.5260356788044989  0.2226026015890532  0.6898994953621294  Uiso  ?  Ce
Ce1  1.0  0.5005870509603089  0.22318111804296412  0.637623385156356  Uiso  ?  Ce
O1  1.0  0.4959154688507597  0.21904788510205092  0.6700860615659096  Uiso  ?  O
O1  1.0  0.535387597311272  0.22236808045812526  0.6524543487351158  Uiso  ?  O
Ce1  1.0  0.5469765760721509  0.2601467868697087  0.8408237772117971  Uiso  ?  Ce
O1  1.0  0.5548690570661463  0.2617213817861522  0.802747703836978  Uiso  ?  O
O1  1.0  0.5900676325344434  0.26385682942186595  0.7900545889689308  Uiso  ?  O
O1  1.0  0.5780763975549498  0.26591496520557084  0.8538930738979449  Uiso  ?  O
O1  1.0  0.617307921915202  0.2718665649170226  0.8425595688412456  Uiso  ?  O
O1  1.0  0.5695311604051497  0.23429888732617077  0.8304530105919329  Uiso  ?  O
O1  1.0  0.6088573262198251  0.23902923399202963  0.8135404141193724  Uiso  ?  O
Ce1  1.0  0.5207892260949253  0.25900386267936476  0.7871101283185926  Uiso  ?  Ce
Ce1  1.0  0.5757956763762763  0.2352748028554732  0.7958494923897976  Uiso  ?  Ce
Ce1  1.0  0.5530244289763981  0.23008705086740014  0.745807325345338  Uiso  ?  Ce
O1  1.0  0.5468862855672638  0.23154278473320142  0.7771378061789996  Uiso  ?  O
O1  1.0  0.582423260724938  0.23424753506101545  0.7602186348946994  Uiso  ?  O
O1  1.0  0.5959307402044618  0.205542896074561  0.7913510818833078  Uiso  ?  O
Ce1  1.0  0.600402024481483  0.2385644229332262  0.8494329158619431  Uiso  ?  Ce
O1  1.0  0.594693723112673  0.24056432678958975  0.8837984229731699  Uiso  ?  O
O1  1.0  0.6303720332904252  0.24313205597433102  0.8698803563978912  Uiso  ?  O
O1  1.0  0.5873403891678287  0.2087930754105442  0.8602405241502101  Uiso  ?  O
O1  1.0  0.6244828335302113  0.2104512851079039  0.8470944657608769  Uiso  ?  O
Ce1  1.0  0.39662801985476526  0.28546162371264844  0.31516739686933354  Uiso  ?  Ce
O1  1.0  0.40554392154843805  0.28506168148309025  0.27955484879251097  Uiso  ?  O
O1  1.0  0.41810035665119055  0.2581654092674896  0.3096257028869155  Uiso  ?  O
O1  1.0  0.45555646551829854  0.2599072028163023  0.29399032986443574  Uiso  ?  O
Ce1  1.0  0.3787338543870435  0.22225406450200677  0.26445345555476873  Uiso  ?  Ce
Ce1  1.0  0.42560793238082334  0.25807993702309595  0.2760309097179433  Uiso  ?  Ce
O1  1.0  0.3956004829302872  0.25554808028813464  0.25465584342805125  Uiso  ?  O
O1  1.0  0.43214524890769435  0.25768263370653116  0.23542868952652696  Uiso  ?  O
O1  1.0  0.3854795064021323  0.22098365499333839  0.22823851589882088  Uiso  ?  O
O1  1.0  0.4225443152182007  0.22604567355377844  0.20939494521496874  Uiso  ?  O
O1  1.0  0.41161576036175357  0.22345808725553287  0.2821042494417255  Uiso  ?  O
O1  1.0  0.44950618096804945  0.22904184221596371  0.2665842874616411  Uiso  ?  O
O1  1.0  0.47010158457116497  0.2703181487727535  0.41610668580274773  Uiso  ?  O
O1  1.0  0.5077604435324227  0.2692934120435327  0.4000409012024119  Uiso  ?  O
Ce1  1.0  0.43111427870026536  0.23259437970501526  0.3746762493176254  Uiso  ?  Ce
Ce1  1.0  0.47629250531769274  0.26621065051140735  0.38355767526195433  Uiso  ?  Ce
Ce1  1.0  0.4500871827722438  0.2587501187352257  0.32653042940337434  Uiso  ?  Ce
O1  1.0  0.4427411612366085  0.261199775162195  0.36233300332323454  Uiso  ?  O
O1  1.0  0.4814087364567676  0.2634325568848269  0.34630998266941687  Uiso  ?  O
O1  1.0  0.4371089269408576  0.23109143176914757  0.3357391658866567  Uiso  ?  O
O1  1.0  0.47106703870567135  0.2338405471328594  0.3224063007257776  Uiso  ?  O
O1  1.0  0.46069013649830465  0.2378916095887621  0.3919252214914196  Uiso  ?  O
O1  1.0  0.4984082400723498  0.24154484372936594  0.3756790580001364  Uiso  ?  O
O1  1.0  0.4888540922957694  0.20703786820183143  0.34700849652198446  Uiso  ?  O
Ce1  1.0  0.40573855173156576  0.22661069568614617  0.3207673233358638  Uiso  ?  Ce
O1  1.0  0.5184750407326442  0.2755823395579349  0.5258820521578865  Uiso  ?  O
O1  1.0  0.5552404460351285  0.28185560504026624  0.5090516121524347  Uiso  ?  O
Ce1  1.0  0.47519854329340977  0.2386971328398223  0.47948505716679996  Uiso  ?  Ce
Ce1  1.0  0.5242425453861179  0.27602209597873967  0.49085702578638246  Uiso  ?  Ce
Ce1  1.0  0.4994749472440438  0.27167072772346906  0.4381102773728808  Uiso  ?  Ce
O1  1.0  0.4931153667415882  0.2730346263547238  0.46790820317897813  Uiso  ?  O
O1  1.0  0.5313371539245132  0.27392157155121233  0.4522906118494017  Uiso  ?  O
O1  1.0  0.48426694790398356  0.240309514477252  0.446100741817976  Uiso  ?  O
O1  1.0  0.5205095912604587  0.23948964547972365  0.42801065966620727  Uiso  ?  O
O1  1.0  0.5101265028120349  0.24395781235921205  0.5001449887439907  Uiso  ?  O
O1  1.0  0.5442758008314664  0.24976841195704585  0.4835818228071711  Uiso  ?  O
O1  1.0  0.4996660886408614  0.21423372437318802  0.4738858895460444  Uiso  ?  O
O1  1.0  0.5381771886086865  0.2136090244935788  0.45581464290419493  Uiso  ?  O
Ce1  1.0  0.4533953290113202  0.23744578913894607  0.42528459505648536  Uiso  ?  Ce
Ce1  1.0  0.5038249402715471  0.21316173527427992  0.4394566436107758  Uiso  ?  Ce
Ce1  1.0  0.4852646512401805  0.20935731462694024  0.3822143540297633  Uiso  ?  Ce
O1  1.0  0.4747601945850543  0.20766331031542024  0.42228307914889596  Uiso  ?  O
O1  1.0  0.5106852016470734  0.21103210434014633  0.40177447273542194  Uiso  ?  O
Ce1  1.0  0.5274832286035249  0.24915851206141282  0.5903526277060253  Uiso  ?  Ce
Ce1  1.0  0.5719228127891094  0.284772112418406  0.5988651750008801  Uiso  ?  Ce
Ce1  1.0  0.5488420353426346  0.28034901375595234  0.546734396962129  Uiso  ?  Ce
O1  1.0  0.5429441810339857  0.2793409097548929  0.58104535653994  Uiso  ?  O
O1  1.0  0.579818927051528  0.2831588614595524  0.5603944645192006  Uiso  ?  O
O1  1.0  0.5352344246684801  0.2477957980885302  0.5539400278369905  Uiso  ?  O
O1  1.0  0.5703740060520638  0.25069759045322665  0.536708298957499  Uiso  ?  O
O1  1.0  0.5584944860166292  0.2542820803523724  0.6058624001849237  Uiso  ?  O
O1  1.0  0.5942980524304532  0.2548563417200127  0.5908320887064543  Uiso  ?  O
O1  1.0  0.5480988457040347  0.21948916020293002  0.5831316088441174  Uiso  ?  O
O1  1.0  0.5855011456198689  0.22639302246924212  0.5665320536681235  Uiso  ?  O
Ce1  1.0  0.5025009060495884  0.24561453338565994  0.5347798682270551  Uiso  ?  Ce
Ce1  1.0  0.5535830133076215  0.22103559748586493  0.5451040681206092  Uiso  ?  Ce
Ce1  1.0  0.5289480790872959  0.21440199606630445  0.491075236188183  Uiso  ?  Ce
O1  1.0  0.5178018093800444  0.2147095685315504  0.5277386691326362  Uiso  ?  O
O1  1.0  0.5634083965738791  0.2205498952646541  0.510021722362145  Uiso  ?  O
Ce1  1.0  0.5765858119368582  0.2604382381717177  0.6986581511809997  Uiso  ?  Ce
O1  1.0  0.5823168899389952  0.25776474779115677  0.6595301801221133  Uiso  ?  O
O1  1.0  0.6212418906146372  0.262833937415851  0.6441842003746026  Uiso  ?  O
O1  1.0  0.605704470849033  0.26544258759540906  0.7153821232290365  Uiso  ?  O
O1  1.0  0.6455644684413172  0.2657243712203646  0.6984166388605786  Uiso  ?  O
O1  1.0  0.5956165761451928  0.23073218483905236  0.6867589442077272  Uiso  ?  O
O1  1.0  0.6369591230111714  0.23421000040798767  0.6709112937400207  Uiso  ?  O
Ce1  1.0  0.5486479428734962  0.2556672926928244  0.6416031045461768  Uiso  ?  Ce
Ce1  1.0  0.6023894402335069  0.2298713133090608  0.6531969325984952  Uiso  ?  Ce
Ce1  1.0  0.5783902787840631  0.22736772808802516  0.5996743406173677  Uiso  ?  Ce
O1  1.0  0.5743908908431661  0.22701225856058257  0.6353900249291274  Uiso  ?  O
O1  1.0  0.6075329096736759  0.2306479948887071  0.6189140407331614  Uiso  ?  O
O1  1.0  0.625569400051753  0.20264659887203587  0.6453401772885488  Uiso  ?  O
Ce1  1.0  0.6234528666710725  0.2687625879333599  0.8045071423014192  Uiso  ?  Ce
O1  1.0  0.6328476247958497  0.267934169145196  0.7673710936618574  Uiso  ?  O
O1  1.0  0.6717645165024827  0.27241309658648377  0.7514897077329012  Uiso  ?  O
O1  1.0  0.6536948927920486  0.27222968488356947  0.8231264523663295  Uiso  ?  O
O1  1.0  0.6933529306766532  0.27436862689783903  0.8067510890951001  Uiso  ?  O
O1  1.0  0.6435140020834218  0.24065266650462533  0.8006647793378594  Uiso  ?  O
O1  1.0  0.685428180273812  0.2436758020269481  0.7803947833233531  Uiso  ?  O
Ce1  1.0  0.6000985076941561  0.2623247395358864  0.7505108206530632  Uiso  ?  Ce
Ce1  1.0  0.6043013726659213  0.20637725972584614  0.7530428164282644  Uiso  ?  Ce
Ce1  1.0  0.6521853329578271  0.2434242047183941  0.7634863416278023  Uiso  ?  Ce
Ce1  1.0  0.6276984327798167  0.2352774046584048  0.7096188733035592  Uiso  ?  Ce
O1  1.0  0.6223130106152343  0.23700944168948368  0.7431351969355073  Uiso  ?  O
O1  1.0  0.6608895287757299  0.24200523962809742  0.727226252980635  Uiso  ?  O
O1  1.0  0.6116219488538269  0.20221463527273  0.7177110251763678  Uiso  ?  O
O1  1.0  0.6502767108096182  0.2072485272338625  0.7015657771008413  Uiso  ?  O
O1  1.0  0.6370281534772236  0.2075314949866526  0.773937891918624  Uiso  ?  O
O1  1.0  0.6736724003370442  0.21309473592996978  0.7566935657252248  Uiso  ?  O
O1  1.0  0.681577838990781  0.281251140338423  0.8792642898117982  Uiso  ?  O
O1  1.0  0.7332966203190289  0.25760124475629964  0.8932996555921909  Uiso  ?  O
Ce1  1.0  0.6465093736817589  0.2703445349660506  0.8602962649656871  Uiso  ?  Ce
Ce1  1.0  0.6530151663271444  0.2144639509395542  0.8624597752506689  Uiso  ?  Ce
Ce1  1.0  0.7024335717714177  0.24825706152428614  0.8692844590002236  Uiso  ?  Ce
Ce1  1.0  0.6771103495204559  0.24500904577481566  0.8178922756912689  Uiso  ?  Ce
O1  1.0  0.6665664384384316  0.24616592551235036  0.850168315031331  Uiso  ?  O
O1  1.0  0.7065195629325489  0.2525820600397942  0.834002959612624  Uiso  ?  O
O1  1.0  0.6641374167543477  0.21403266873910187  0.8274277019915528  Uiso  ?  O
O1  1.0  0.6994001314892746  0.21801888568789873  0.80901447017329  Uiso  ?  O
O1  1.0  0.6842950357183198  0.21733067060343558  0.8793104582103117  Uiso  ?  O
O1  1.0  0.7213057277150269  0.2220664475578869  0.8611108836860446  Uiso  ?  O
Ce1  1.0  0.629721815634237  0.2114482636977303  0.8092098397722831  Uiso  ?  Ce
O1  1.0  0.49504298618880604  0.265774199176366  0.27442199605547907  Uiso  ?  O
O1  1.0  0.5337537715033864  0.2702162518666653  0.25565490948507685  Uiso  ?  O
Ce1  1.0  0.4579100970044993  0.22636660440253223  0.23093063176516315  Uiso  ?  Ce
Ce1  1.0  0.5039964285665365  0.2661500281233583  0.23906032496299615  Uiso  ?  Ce
Ce1  1.0  0.4782806909018161  0.2585265370959805  0.18540880157493783  Uiso  ?  Ce
O1  1.0  0.46959424721891474  0.26166002436931546  0.21825786911856712  Uiso  ?  O
O1  1.0  0.5101483759211588  0.26382436688719235  0.20001711149144974  Uiso  ?  O
O1  1.0  0.4636175979295493  0.2318018969345797  0.195047497736577  Uiso  ?  O
O1  1.0  0.5023208049416055  0.22951055082144717  0.17855360199750092  Uiso  ?  O
O1  1.0  0.48689271654049415  0.23218234198095078  0.24879235958610207  Uiso  ?  O
O1  1.0  0.5252578301129609  0.23600358479790026  0.22906777504483836  Uiso  ?  O
O1  1.0  0.5153705940420811  0.20434964999950594  0.20351357220567962  Uiso  ?  O
O1  1.0  0.544176900951806  0.2741400055565055  0.3826870159351486  Uiso  ?  O
O1  1.0  0.5822464126950595  0.27652025668818175  0.364909442663621  Uiso  ?  O
Ce1  1.0  0.5057630312801512  0.2401507315968684  0.337326393158651  Uiso  ?  Ce
Ce1  1.0  0.5499819573012912  0.27573443986446566  0.34569422866035066  Uiso  ?  Ce
Ce1  1.0  0.5267932968484987  0.269037911361628  0.2951850618576822  Uiso  ?  Ce
O1  1.0  0.5180403370958863  0.27076065949313877  0.3298446112010323  Uiso  ?  O
O1  1.0  0.5606391682094907  0.27156922013457574  0.3107152649257197  Uiso  ?  O
O1  1.0  0.511902168360003  0.23766892068500223  0.3023210328180872  Uiso  ?  O
O1  1.0  0.5502846669738476  0.24282262594880596  0.2857162924570287  Uiso  ?  O
O1  1.0  0.5383147018081922  0.24230820121377056  0.3589479861845051  Uiso  ?  O
O1  1.0  0.57421056461512  0.2453052035890378  0.340741908688811  Uiso  ?  O
O1  1.0  0.5250640170436854  0.2091884930982496  0.3304044465919509  Uiso  ?  O
O1  1.0  0.5660802372645034  0.2159877862263187  0.3136291020083282  Uiso  ?  O
Ce1  1.0  0.48035353379210594  0.23274350077408046  0.28507951173067375  Uiso  ?  Ce
Ce1  1.0  0.5333661065451578  0.21127655088433028  0.2939547228777585  Uiso  ?  Ce
Ce1  1.0  0.5092145645282903  0.201365470863549  0.24085341456053708  Uiso  ?  Ce
O1  1.0  0.5025001995064106  0.204266358939153  0.27617885202579107  Uiso  ?  O
O1  1.0  0.5384369813909395  0.21054253375056473  0.25932772350728517  Uiso  ?  O
O1  1.0  0.5918213957574577  0.28418169327477455  0.4888647465617785  Uiso  ?  O
Ce1  1.0  0.5516136798719582  0.25160632009324074  0.4455658615900907  Uiso  ?  Ce
Ce1  1.0  0.601410842842985  0.2825360688934735  0.4548236658595352  Uiso  ?  Ce
Ce1  1.0  0.5777331978244079  0.2784348870888241  0.401498345101883  Uiso  ?  Ce
O1  1.0  0.5714080194814034  0.2800820981340312  0.4368026847062974  Uiso  ?  O
O1  1.0  0.6084318663338683  0.2815394942088964  0.41689994885709397  Uiso  ?  O
O1  1.0  0.5591848962427217  0.24893748640815652  0.4101337239654927  Uiso  ?  O
O1  1.0  0.6009972294090741  0.25348366108489984  0.3910721430356085  Uiso  ?  O
O1  1.0  0.5859047253783689  0.25214193865027323  0.4636069317783438  Uiso  ?  O
O1  1.0  0.6202445431220062  0.25884124374749395  0.4448037549156691  Uiso  ?  O
O1  1.0  0.569404423229503  0.2202849725321281  0.4407057014571613  Uiso  ?  O
O1  1.0  0.613725559637654  0.22298139114551954  0.42114121623323353  Uiso  ?  O
Ce1  1.0  0.5266085424893007  0.24297673280459262  0.39258243735272447  Uiso  ?  Ce
Ce1  1.0  0.5845051892758748  0.2222476307363309  0.40324973551353777  Uiso  ?  Ce
Ce1  1.0  0.559112840803055  0.2154461141309144  0.3485776852884903  Uiso  ?  Ce
O1  1.0  0.5500937485373364  0.21491882205536636  0.3843952784834485  Uiso  ?  O
O1  1.0  0.5910518587917337  0.2186915260446576  0.365669342351068  Uiso  ?  O
Ce1  1.0  0.6056739571216131  0.25621112438821747  0.5536789309208855  Uiso  ?  Ce
O1  1.0  0.6090870134663103  0.2558302065478589  0.518752441430686  Uiso  ?  O
O1  1.0  0.6475216039861551  0.26019071959858864  0.4993615318025679  Uiso  ?  O
O1  1.0  0.6344134119190553  0.2610334203970109  0.5752278559400086  Uiso  ?  O
O1  1.0  0.6709966868920145  0.26705631666687724  0.5550463311539665  Uiso  ?  O
O1  1.0  0.6247399370517379  0.23112082565463563  0.5482647784383223  Uiso  ?  O
O1  1.0  0.6625424603172866  0.2357590491005581  0.529793849501158  Uiso  ?  O
Ce1  1.0  0.5794190673116028  0.25157453340740177  0.49753558349687743  Uiso  ?  Ce
Ce1  1.0  0.6323959334015183  0.2301200600986183  0.5092544118780464  Uiso  ?  Ce
Ce1  1.0  0.6062474284782033  0.22545964053973686  0.45583574375017283  Uiso  ?  Ce
O1  1.0  0.6019189343163661  0.22432375254516487  0.4929412644283035  Uiso  ?  O
O1  1.0  0.6381820160876708  0.2307051838146167  0.47500138753022336  Uiso  ?  O
Ce1  1.0  0.6497645454287484  0.2682560207551594  0.6639732794543969  Uiso  ?  Ce
O1  1.0  0.657410472561035  0.2652881096198114  0.6227996515756508  Uiso  ?  O
O1  1.0  0.6922617902801007  0.2686698437370776  0.606763370581302  Uiso  ?  O
O1  1.0  0.6822544730023558  0.2693369006583478  0.6802204219984472  Uiso  ?  O
O1  1.0  0.719182396029717  0.2743122638950538  0.6627445087277601  Uiso  ?  O
O1  1.0  0.6749597719396002  0.23653413392382444  0.6557628338905337  Uiso  ?  O
O1  1.0  0.7119434245146554  0.2410117663543389  0.6386145973402254  Uiso  ?  O
Ce1  1.0  0.624832911723831  0.25922592953449275  0.6102693624820615  Uiso  ?  Ce
Ce1  1.0  0.6778340872469709  0.23898442745685108  0.6221121202580373  Uiso  ?  Ce
Ce1  1.0  0.655324165765811  0.23297662207895825  0.5651267543420794  Uiso  ?  Ce
O1  1.0  0.64631384244779  0.22905947364035814  0.6020616830456432  Uiso  ?  O
O1  1.0  0.6858571244350247  0.24023657364505663  0.5831006654847144  Uiso  ?  O
O1  1.0  0.6799371915628946  0.20903251905115147  0.5581048455327982  Uiso  ?  O
O1  1.0  0.6643322027550616  0.20906922291077676  0.630752094682679  Uiso  ?  O
O1  1.0  0.7017054958443019  0.2122853995076042  0.6091602581757589  Uiso  ?  O
Ce1  1.0  0.7007170526105735  0.27484851828783463  0.7683563263291469  Uiso  ?  Ce
O1  1.0  0.7078349013552485  0.27694760604084145  0.7357449869225429  Uiso  ?  O
O1  1.0  0.743389941073984  0.2801696525262144  0.7189557178689147  Uiso  ?  O
O1  1.0  0.7302032364100558  0.28298074186488253  0.7848614551939171  Uiso  ?  O
O1  1.0  0.7189586010906367  0.2492657086395475  0.7617659144153772  Uiso  ?  O
O1  1.0  0.7572178525107148  0.24913509456100608  0.7485398535610125  Uiso  ?  O
Ce1  1.0  0.6764870426978807  0.27230513809187856  0.7187170836220105  Uiso  ?  Ce
Ce1  1.0  0.6814014590375704  0.21217368379405252  0.7171644143795045  Uiso  ?  Ce
Ce1  1.0  0.7279707518979799  0.249824384934664  0.7281821315409389  Uiso  ?  Ce
Ce1  1.0  0.7030898816445258  0.24138229620016233  0.6722351718130466  Uiso  ?  Ce
O1  1.0  0.6970780537105892  0.24368971909704512  0.7097053651806372  Uiso  ?  O
O1  1.0  0.7363432088778545  0.2457877200753145  0.6944256592958927  Uiso  ?  O
O1  1.0  0.6868374305163227  0.20861711683049547  0.6816283411718829  Uiso  ?  O
O1  1.0  0.7286919266003481  0.21212937296917903  0.665742507192023  Uiso  ?  O
O1  1.0  0.7125030987837677  0.2139922618836888  0.7368686119742988  Uiso  ?  O
O1  1.0  0.752074137945455  0.2178937953389275  0.7191445167477207  Uiso  ?  O
Ce1  1.0  0.6564943623095213  0.207557369360961  0.6656647633818404  Uiso  ?  Ce
Ce1  1.0  0.721381800238093  0.2832943098224624  0.8240215531564001  Uiso  ?  Ce
Ce1  1.0  0.7308335631715137  0.2233381175575988  0.8273871376578015  Uiso  ?  Ce
Ce1  1.0  0.7768544757608663  0.257936787075285  0.8359488435687309  Uiso  ?  Ce
Ce1  1.0  0.754278792835913  0.25488201597727744  0.7838369876864668  Uiso  ?  Ce
O1  1.0  0.7458532401783107  0.2540930859041687  0.8154019753863073  Uiso  ?  O
O1  1.0  0.7832248398144972  0.2560033510008303  0.8011890809939053  Uiso  ?  O
O1  1.0  0.7373240218629457  0.22402248201314143  0.7926397487738466  Uiso  ?  O
O1  1.0  0.7751971608829656  0.2253038689643076  0.7745049940019405  Uiso  ?  O
O1  1.0  0.7619694243996729  0.22586440047772227  0.8441562201786728  Uiso  ?  O
O1  1.0  0.8002078997374025  0.22897995131669285  0.8300135940035328  Uiso  ?  O
Ce1  1.0  0.7053748275296747  0.21998561098569908  0.7734401774493269  Uiso  ?  Ce
Ce1  1.0  0.7554609767387689  0.22427227657733395  0.8829005102583916  Uiso  ?  Ce
O1  1.0  0.5726732148264335  0.2715738602806276  0.23881821539543086  Uiso  ?  O
O1  1.0  0.6108341755690473  0.27617471898948087  0.22022790177685397  Uiso  ?  O
Ce1  1.0  0.5317844644873416  0.23750135709789064  0.19860570807939223  Uiso  ?  Ce
Ce1  1.0  0.5793565334429  0.27152334051746024  0.202785168034687  Uiso  ?  Ce
Ce1  1.0  0.5537732808032049  0.26584847984128035  0.14993690414856478  Uiso  ?  Ce
O1  1.0  0.546990428905716  0.2687547141306567  0.1844207248098212  Uiso  ?  O
O1  1.0  0.5862828753909136  0.2701928079019826  0.1670010767727147  Uiso  ?  O
O1  1.0  0.5355602124496378  0.2369423209580251  0.15877175077749223  Uiso  ?  O
O1  1.0  0.5773960171451362  0.23826603077705713  0.1395793871075595  Uiso  ?  O
O1  1.0  0.5614780319791111  0.23979131266193424  0.21442965135142855  Uiso  ?  O
O1  1.0  0.6021964152569498  0.243826738369817  0.19572265583457735  Uiso  ?  O
O1  1.0  0.5544314442631914  0.2093246844201353  0.1856179274546247  Uiso  ?  O
O1  1.0  0.5913658052968664  0.21287300183120517  0.16872207099701203  Uiso  ?  O
Ce1  1.0  0.5604733048558982  0.20630818774855939  0.1528857045268388  Uiso  ?  Ce
O1  1.0  0.6210663737856658  0.28297388188068134  0.34709324565125266  Uiso  ?  O
O1  1.0  0.6597838514289863  0.2837284267139448  0.3309348863656365  Uiso  ?  O
Ce1  1.0  0.5810633581288908  0.24516604590707003  0.30436846143837837  Uiso  ?  Ce
Ce1  1.0  0.6260157346262631  0.27986727624286395  0.31156265493393487  Uiso  ?  Ce
Ce1  1.0  0.6036587200823355  0.2762348806882367  0.2562785202417419  Uiso  ?  Ce
O1  1.0  0.5952028311108293  0.2765276605498195  0.2938984078600243  Uiso  ?  O
O1  1.0  0.6331684301018552  0.28144306229129057  0.27700585761879293  Uiso  ?  O
O1  1.0  0.587681407199996  0.2443394687439841  0.2674694391896283  Uiso  ?  O
O1  1.0  0.6257476055740466  0.2457997700128191  0.2486043815936876  Uiso  ?  O
O1  1.0  0.6114125235429155  0.2503343692512058  0.31877635378818614  Uiso  ?  O
O1  1.0  0.648194657139559  0.2544025371544365  0.30535046386944265  Uiso  ?  O
O1  1.0  0.6040981028548689  0.21854931073500888  0.29747742272532834  Uiso  ?  O
O1  1.0  0.6388416683491935  0.2217504985936458  0.2800066896746269  Uiso  ?  O
Ce1  1.0  0.5533492012547093  0.23930145737081468  0.2502297357591053  Uiso  ?  Ce
Ce1  1.0  0.6082588130486232  0.2167792065532599  0.2591454876697366  Uiso  ?  Ce
Ce1  1.0  0.5852837677212319  0.20904193601997362  0.2056438843205141  Uiso  ?  Ce
O1  1.0  0.5785930536636141  0.212663087109076  0.24180222828178966  Uiso  ?  O
O1  1.0  0.6170971868340145  0.21416238289039224  0.22339409538599245  Uiso  ?  O
Ce1  1.0  0.6286142017627093  0.25593746472257334  0.41237034475809464  Uiso  ?  Ce
Ce1  1.0  0.652077304795935  0.28620730092417945  0.36789098487866134  Uiso  ?  Ce
O1  1.0  0.6348324306321798  0.2544974136972741  0.37215737459874865  Uiso  ?  O
O1  1.0  0.6733047382030181  0.2591644325954401  0.3592175117534262  Uiso  ?  O
O1  1.0  0.6615851471672686  0.2589402037750628  0.4292168616628919  Uiso  ?  O
O1  1.0  0.6982794218625071  0.2610391694756862  0.4128445919438915  Uiso  ?  O
O1  1.0  0.6527542067101978  0.22574509693304273  0.40166092755593813  Uiso  ?  O
O1  1.0  0.6889092504136786  0.2307618633851497  0.38740541763841874  Uiso  ?  O
Ce1  1.0  0.6038186225600576  0.2509366379888078  0.3577722288599761  Uiso  ?  Ce
Ce1  1.0  0.6577744267380427  0.22640755556129388  0.36945541355267475  Uiso  ?  Ce
Ce1  1.0  0.6324505711934052  0.2211991715605766  0.3097019995423744  Uiso  ?  Ce
O1  1.0  0.6255928208145741  0.22167943875101312  0.35091979808034085  Uiso  ?  O
O1  1.0  0.6652239871682959  0.22644733042303705  0.3293707500424508  Uiso  ?  O
Ce1  1.0  0.6785450620219347  0.2644287327137463  0.5195089397725838  Uiso  ?  Ce
O1  1.0  0.6864116909631035  0.2623461599424992  0.4854752163495321  Uiso  ?  O
O1  1.0  0.7218968944715372  0.2671912537414062  0.465308108343633  Uiso  ?  O
O1  1.0  0.7074662077112236  0.2709394338034463  0.5399971447529593  Uiso  ?  O
O1  1.0  0.7486912026424678  0.2696014400996147  0.5177694994795587  Uiso  ?  O
O1  1.0  0.7013146327032523  0.23510104014509817  0.5123357316126504  Uiso  ?  O
O1  1.0  0.7381926620661073  0.24175525352805008  0.49306072618079133  Uiso  ?  O
Ce1  1.0  0.6523344505224546  0.25993202167812385  0.46476925635643396  Uiso  ?  Ce
Ce1  1.0  0.7083559720833358  0.23650491322171624  0.47506845301626344  Uiso  ?  Ce
Ce1  1.0  0.6807803943728429  0.2315881055897887  0.42313492046223566  Uiso  ?  Ce
O1  1.0  0.6739570175850086  0.2327602844462417  0.45625933912582933  Uiso  ?  O
O1  1.0  0.7129994357216957  0.23562609026211143  0.44393787539561674  Uiso  ?  O
O1  1.0  0.7049576794177806  0.20280335328844323  0.414054785177489  Uiso  ?  O
O1  1.0  0.6931973687561974  0.2059497340042819  0.4878411447557919  Uiso  ?  O
O1  1.0  0.7258658609980744  0.20695339624694423  0.46651351676210395  Uiso  ?  O
Ce1  1.0  0.7254237325994668  0.2717624398543759  0.6269461539234569  Uiso  ?  Ce
O1  1.0  0.7353356584556302  0.2705232527656571  0.5893489249356066  Uiso  ?  O
O1  1.0  0.7689192773665513  0.2767941192179419  0.5735421612828715  Uiso  ?  O
O1  1.0  0.758503402463665  0.27983654652435064  0.6467965510158834  Uiso  ?  O
O1  1.0  0.747322276525371  0.2457826413036414  0.6210824655234711  Uiso  ?  O
O1  1.0  0.7855009943174326  0.24715323993427998  0.6000753825772578  Uiso  ?  O
Ce1  1.0  0.7047124316827589  0.27106159273198416  0.5731255802995255  Uiso  ?  Ce
Ce1  1.0  0.7081975670935122  0.2117917379943434  0.57595235857734  Uiso  ?  Ce
Ce1  1.0  0.7569466922257533  0.24546201805805004  0.5853944619915392  Uiso  ?  Ce
Ce1  1.0  0.7319076862679249  0.24142347532301153  0.5295754887845618  Uiso  ?  Ce
O1  1.0  0.7252285249978433  0.24207467392442125  0.5662586694311762  Uiso  ?  O
O1  1.0  0.7632551662595218  0.24449635684989188  0.5489819988498194  Uiso  ?  O
O1  1.0  0.7122490338888319  0.20960194312005956  0.5362611792670673  Uiso  ?  O
O1  1.0  0.7522424242327849  0.2142526251564093  0.5245442070956197  Uiso  ?  O
O1  1.0  0.7394948464429822  0.21501814139341394  0.5945073060660053  Uiso  ?  O
O1  1.0  0.7783977582725973  0.21772936963860332  0.577662075428758  Uiso  ?  O
Ce1  1.0  0.68412474047328  0.20245677379910054  0.521378686240148  Uiso  ?  Ce
O1  1.0  0.7993183554849738  0.25545197978115214  0.7288003521897382  Uiso  ?  O
Ce1  1.0  0.7522653071917511  0.28021809710705964  0.6790189602621519  Uiso  ?  Ce
Ce1  1.0  0.761361431802916  0.2224576530044919  0.6850208914551454  Uiso  ?  Ce
Ce1  1.0  0.8066133286893775  0.255473583410198  0.6933159756737157  Uiso  ?  Ce
Ce1  1.0  0.7796739024347996  0.2491792011144243  0.6357847971318464  Uiso  ?  Ce
O1  1.0  0.7733536975609487  0.24990516493542578  0.6723999889530633  Uiso  ?  O
O1  1.0  0.8076746332586692  0.25361042008513873  0.6574504638426903  Uiso  ?  O
O1  1.0  0.7640543403996508  0.21871001925660685  0.6464591881326336  Uiso  ?  O
O1  1.0  0.7993210817179639  0.22291607250633583  0.6289602130355858  Uiso  ?  O
O1  1.0  0.7885935980418066  0.22340428886341612  0.7034622198608862  Uiso  ?  O
O1  1.0  0.8240612086467748  0.22369238388363102  0.6853684191742978  Uiso  ?  O
Ce1  1.0  0.7352886283124545  0.21369451138302226  0.6282246993053272  Uiso  ?  Ce
Ce1  1.0  0.8077012430709115  0.2269836132836505  0.7896745990095463  Uiso  ?  Ce
O1  1.0  0.813562652297546  0.23054980230565852  0.7596872033039193  Uiso  ?  O
O1  1.0  0.8392527458870696  0.23238272850623157  0.8130296124380539  Uiso  ?  O
Ce1  1.0  0.7807736454167395  0.2243095173404961  0.7355094684281291  Uiso  ?  Ce
Ce1  1.0  0.8301915773581909  0.2330055081329595  0.8455666830587778  Uiso  ?  Ce
O1  1.0  0.6469176527302877  0.2789389875575011  0.20268859400175793  Uiso  ?  O
O1  1.0  0.6857979558357168  0.28179822806677424  0.18517313760610285  Uiso  ?  O
Ce1  1.0  0.604665866960629  0.2458208087408425  0.1621244162860445  Uiso  ?  Ce
Ce1  1.0  0.6548977574157191  0.2776521070555866  0.1706254514865009  Uiso  ?  Ce
O1  1.0  0.6237990734720373  0.27608677868041875  0.15148181604364647  Uiso  ?  O
O1  1.0  0.6593664600755966  0.2765855804661649  0.1343864786015909  Uiso  ?  O
O1  1.0  0.639087757346916  0.24518386410345852  0.17667614700984582  Uiso  ?  O
O1  1.0  0.6770394420535495  0.25150162133395065  0.16053804176132427  Uiso  ?  O
O1  1.0  0.6283968357292535  0.2165245540132535  0.15250124133870904  Uiso  ?  O
O1  1.0  0.6711489780587535  0.21484199460457065  0.13491194190772401  Uiso  ?  O
Ce1  1.0  0.6550079332899861  0.2523902959406897  0.26714425709612477  Uiso  ?  Ce
Ce1  1.0  0.6773154210640957  0.2836077522293808  0.22098272219851037  Uiso  ?  Ce
O1  1.0  0.6725717040307498  0.2844259564395685  0.258252468956441  Uiso  ?  O
O1  1.0  0.6652163951362353  0.25146430967257116  0.23318988562419726  Uiso  ?  O
O1  1.0  0.704831605361539  0.2533455340263291  0.21449081568698253  Uiso  ?  O
O1  1.0  0.6876274835338172  0.2573295451293657  0.2914564733393701  Uiso  ?  O
O1  1.0  0.7234798172528013  0.2615148861354203  0.2679768776924103  Uiso  ?  O
O1  1.0  0.679738347683306  0.2240325019196281  0.26045101354744077  Uiso  ?  O
O1  1.0  0.7154247301614673  0.229221996057395  0.24291735310890875  Uiso  ?  O
Ce1  1.0  0.6318378280173691  0.25204292648688975  0.21430404537539666  Uiso  ?  Ce
Ce1  1.0  0.6857361814174568  0.22290538071497032  0.2243094389650985  Uiso  ?  Ce
Ce1  1.0  0.6608303634460004  0.22019901019888366  0.17330912776583307  Uiso  ?  Ce
O1  1.0  0.6535113680223191  0.22022006621136267  0.2064423034142435  Uiso  ?  O
O1  1.0  0.6926262763052492  0.22276245771059702  0.18804381665837322  Uiso  ?  O
Ce1  1.0  0.7053590084079142  0.2616456869894023  0.3763977698762427  Uiso  ?  Ce
O1  1.0  0.7115373420244031  0.25797793740751157  0.3402133348623831  Uiso  ?  O
O1  1.0  0.7491548225631917  0.266731472196124  0.3231782017712364  Uiso  ?  O
O1  1.0  0.73523531774441  0.2672298326996748  0.3956452449226765  Uiso  ?  O
O1  1.0  0.775685983405635  0.2717953298868989  0.3761805228751303  Uiso  ?  O
O1  1.0  0.7284566647282824  0.23452120753384473  0.3679379070951031  Uiso  ?  O
O1  1.0  0.7653711744826498  0.23762623604645536  0.35385088832741696  Uiso  ?  O
Ce1  1.0  0.6811534057857223  0.2583151615521069  0.3215987253839061  Uiso  ?  Ce
Ce1  1.0  0.7338597158818998  0.23505151836970023  0.3343458808932294  Uiso  ?  Ce
Ce1  1.0  0.7106416952570215  0.22875324935191546  0.28131475872890205  Uiso  ?  Ce
O1  1.0  0.7041717308377923  0.22900007246454776  0.315093913451696  Uiso  ?  O
O1  1.0  0.7402343461512383  0.2341603287962087  0.29947527898085596  Uiso  ?  O
O1  1.0  0.7545321829898508  0.20652119134600297  0.32574885409296506  Uiso  ?  O
Ce1  1.0  0.7522864327354158  0.27031197905925164  0.48324366386151474  Uiso  ?  Ce
O1  1.0  0.7612809692354782  0.26879797850471604  0.44772608601226915  Uiso  ?  O
O1  1.0  0.7999361785445183  0.27591473717325893  0.4287863776812406  Uiso  ?  O
O1  1.0  0.7866392616335711  0.2756591945464087  0.5020835156087379  Uiso  ?  O
O1  1.0  0.7775802344016884  0.24392045045561922  0.4765309987115221  Uiso  ?  O
O1  1.0  0.8150224452642291  0.24508537790224172  0.458798421181768  Uiso  ?  O
Ce1  1.0  0.730900772054267  0.2664891163310628  0.42958554234583185  Uiso  ?  Ce
Ce1  1.0  0.7340763033568195  0.20819090500591664  0.42990701204227283  Uiso  ?  Ce
Ce1  1.0  0.7821014550296347  0.24405750584081054  0.443373051127679  Uiso  ?  Ce
Ce1  1.0  0.7581243314570879  0.23736975964576074  0.3878301709785998  Uiso  ?  Ce
O1  1.0  0.7487915178532162  0.23792056710946366  0.4230902641182785  Uiso  ?  O
O1  1.0  0.7882948583709988  0.24390677822968113  0.4058185091573717  Uiso  ?  O
O1  1.0  0.7403513881514592  0.20456945342118896  0.39755317870862195  Uiso  ?  O
O1  1.0  0.779405554174296  0.21098440732147117  0.37780871836739854  Uiso  ?  O
O1  1.0  0.7677306480315864  0.20883752471178882  0.44954401345626555  Uiso  ?  O
O1  1.0  0.8011246982898331  0.214607386881967  0.43282859738433327  Uiso  ?  O
O1  1.0  0.8246867990133238  0.25239956057622037  0.5862970207490243  Uiso  ?  O
Ce1  1.0  0.7774481901485201  0.2770460119818705  0.5381455924938445  Uiso  ?  Ce
Ce1  1.0  0.7856845792905636  0.21673135280825578  0.5434078396851593  Uiso  ?  Ce
Ce1  1.0  0.8324454849527271  0.25138945725192213  0.548325937445514  Uiso  ?  Ce
Ce1  1.0  0.8079568005994686  0.24750166351156305  0.4931715382746905  Uiso  ?  Ce
O1  1.0  0.8002219890790601  0.2488691552066863  0.533329331778238  Uiso  ?  O
O1  1.0  0.8373452660560416  0.25081885779987323  0.5131913773566833  Uiso  ?  O
O1  1.0  0.7929746591416952  0.21879956039356951  0.50503401093329  Uiso  ?  O
O1  1.0  0.8274510609557953  0.22244484524046454  0.4910690500630002  Uiso  ?  O
O1  1.0  0.8164807876115918  0.22361519978340466  0.5587467464690004  Uiso  ?  O
Ce1  1.0  0.7612476205599533  0.21154418570834513  0.4893209027500771  Uiso  ?  Ce
Ce1  1.0  0.830310365769484  0.22564896420729455  0.6475902134985612  Uiso  ?  Ce
O1  1.0  0.8380979733909513  0.2228762952141302  0.6120163071302149  Uiso  ?  O
Ce1  1.0  0.8093378501946686  0.22118615360847244  0.5941911210379687  Uiso  ?  Ce
O1  1.0  0.7168404460938476  0.2506380002574016  0.1445024982460553  Uiso  ?  O
Ce1  1.0  0.733352904841018  0.2605386809004735  0.23217822733053725  Uiso  ?  Ce
O1  1.0  0.7424782693714039  0.258069606129711  0.19577867823952197  Uiso  ?  O
O1  1.0  0.7643156633635714  0.2646112636068331  0.2539304273831167  Uiso  ?  O
O1  1.0  0.7573965711360798  0.23284967430811832  0.22633299392641784  Uiso  ?  O
O1  1.0  0.7913005023547959  0.23519748770798404  0.2067615760969355  Uiso  ?  O
Ce1  1.0  0.7091545009296666  0.25598754038298105  0.18186470501648055  Uiso  ?  Ce
Ce1  1.0  0.7627692238225707  0.23204762175319738  0.18919679902423697  Uiso  ?  Ce
O1  1.0  0.7299516305479148  0.2239827792608231  0.1727714576916213  Uiso  ?  O
O1  1.0  0.783435906361483  0.2034149393287244  0.18108964387221993  Uiso  ?  O
Ce1  1.0  0.7808610190473653  0.2709134366488204  0.3411914286598295  Uiso  ?  Ce
O1  1.0  0.787544240145106  0.26938531900518864  0.30653200697608657  Uiso  ?  O
O1  1.0  0.8029969309490878  0.24409588741725588  0.33357000515963325  Uiso  ?  O
Ce1  1.0  0.7545860912673834  0.26290831653742036  0.28608511775611645  Uiso  ?  Ce
Ce1  1.0  0.7649834564124535  0.20474870883785307  0.291631643026456  Uiso  ?  Ce
Ce1  1.0  0.8118935646932958  0.24048255803329735  0.2985935386257586  Uiso  ?  Ce
Ce1  1.0  0.7854751217981051  0.23572423423402072  0.24620344818652706  Uiso  ?  Ce
O1  1.0  0.783765763085653  0.23732465383193316  0.28086128833367063  Uiso  ?  O
O1  1.0  0.7712966549466185  0.2034203092412386  0.25585816605126904  Uiso  ?  O
O1  1.0  0.8091135916762959  0.2066849499905944  0.23787851645724375  Uiso  ?  O
O1  1.0  0.7923635263608487  0.207841677973672  0.3099662949025081  Uiso  ?  O
Ce1  1.0  0.8069349900059719  0.27525371385197944  0.393055012832552  Uiso  ?  Ce
Ce1  1.0  0.8147480472783694  0.2161770154354025  0.39598216826177024  Uiso  ?  Ce
O1  1.0  0.8279901664974832  0.24580880257634713  0.3863885632770509  Uiso  ?  O
O1  1.0  0.8202000352116576  0.21613948680775638  0.3607946138392109  Uiso  ?  O
O1  1.0  0.8400868073031632  0.21679256746669312  0.4173081117969746  Uiso  ?  O
Ce1  1.0  0.788592227313983  0.2077248098022254  0.34440863412877154  Uiso  ?  Ce
Ce1  1.0  0.8397346256397274  0.21748312089368954  0.4504491537577273  Uiso  ?  Ce
O1  1.0  0.17537192037846336  0.1909606997659345  0.8819823415644433  Uiso  ?  O
O1  1.0  0.17015807926250887  0.16056142430530304  0.8591134606403952  Uiso  ?  O
O1  1.0  0.1690060518407004  0.18987049639097836  0.7568489140665792  Uiso  ?  O
O1  1.0  0.2056044751398198  0.1924536037069544  0.7397089712672698  Uiso  ?  O
Ce1  1.0  0.17348239855709766  0.184650327745906  0.7193828028003971  Uiso  ?  Ce
O1  1.0  0.18058162885435647  0.18797584228591857  0.6850192007105432  Uiso  ?  O
O1  1.0  0.19604845728470466  0.15884198700267355  0.7143501174649586  Uiso  ?  O
O1  1.0  0.21641117856243525  0.19251565140782265  0.8650807217968838  Uiso  ?  O
O1  1.0  0.2514300601074036  0.1991822656438614  0.8484351593092125  Uiso  ?  O
Ce1  1.0  0.1747786180483566  0.15862280383536015  0.8215899795074356  Uiso  ?  Ce
Ce1  1.0  0.2231881851451564  0.19563062947423787  0.8302217911672344  Uiso  ?  Ce
Ce1  1.0  0.19799577065099427  0.18896930150924282  0.7761462323077658  Uiso  ?  Ce
O1  1.0  0.192389713145318  0.1891980088850696  0.8117941057324587  Uiso  ?  O
O1  1.0  0.2307006587183747  0.19511771789586124  0.7919457821048141  Uiso  ?  O
O1  1.0  0.181573500005176  0.1598758256724549  0.7865789141560668  Uiso  ?  O
O1  1.0  0.2207317614165285  0.16437039943614823  0.7663764856356209  Uiso  ?  O
O1  1.0  0.20757247368282003  0.16299574230663524  0.8380135074873645  Uiso  ?  O
O1  1.0  0.24755793012737495  0.1697969109691936  0.8230357392531001  Uiso  ?  O
Ce1  1.0  0.24812977134982656  0.2000913899586063  0.8831506514588289  Uiso  ?  Ce
O1  1.0  0.27166406046431313  0.17155373258057613  0.8763653192760319  Uiso  ?  O
Ce1  1.0  0.199429932591987  0.1664304482230052  0.8762650876793927  Uiso  ?  Ce
O1  1.0  0.18495502045567414  0.1790107040894613  0.48579420237879994  Uiso  ?  O
O1  1.0  0.19159292998109922  0.18366444678899954  0.6115094102798039  Uiso  ?  O
O1  1.0  0.23587855975525784  0.18807936858190724  0.5969989015874754  Uiso  ?  O
Ce1  1.0  0.20382404835943607  0.1849609119358103  0.5786881423725434  Uiso  ?  Ce
Ce1  1.0  0.17791998314746763  0.17821491421564908  0.523384597907866  Uiso  ?  Ce
O1  1.0  0.16927042302588852  0.18163002657321586  0.5592739960852872  Uiso  ?  O
O1  1.0  0.20795182619370933  0.18445181107440198  0.5404416770080398  Uiso  ?  O
O1  1.0  0.2261565148794185  0.1571209356753633  0.5703582788523223  Uiso  ?  O
O1  1.0  0.24389917124956548  0.193551467584809  0.7196633515279319  Uiso  ?  O
O1  1.0  0.2813498894617734  0.19795266001333123  0.7034182423452195  Uiso  ?  O
Ce1  1.0  0.249921101670677  0.19247309631763795  0.6867843528195896  Uiso  ?  Ce
Ce1  1.0  0.22286781984463905  0.18777598769163967  0.6327143508874237  Uiso  ?  Ce
O1  1.0  0.21878905986208247  0.18736999943836252  0.6660176001155437  Uiso  ?  O
O1  1.0  0.25592661769619784  0.19243096844900698  0.6519612850868115  Uiso  ?  O
O1  1.0  0.20678529736100076  0.15579674018316342  0.6408336877003702  Uiso  ?  O
O1  1.0  0.24945293022884873  0.16023012202475276  0.6263523025092841  Uiso  ?  O
O1  1.0  0.23630190715563598  0.16178250598878038  0.6939855712940619  Uiso  ?  O
O1  1.0  0.2747001731862718  0.16423639848278282  0.6777458355398469  Uiso  ?  O
Ce1  1.0  0.18310036401978286  0.15553688500553092  0.6211868616352947  Uiso  ?  Ce
Ce1  1.0  0.2490720133999197  0.16973130468835693  0.7880719750431623  Uiso  ?  Ce
Ce1  1.0  0.29885134335438035  0.20207877361206816  0.7942189486403751  Uiso  ?  Ce
Ce1  1.0  0.27382959030979215  0.19919095512016677  0.7413114998289246  Uiso  ?  Ce
O1  1.0  0.26823568934353387  0.19580069976534475  0.7763251553776485  Uiso  ?  O
O1  1.0  0.3078288098402461  0.2005529936064913  0.7573578417139537  Uiso  ?  O
O1  1.0  0.25813524844855423  0.1673379774080494  0.7482269712366674  Uiso  ?  O
O1  1.0  0.29782131062589795  0.17077305900616757  0.7334475600778048  Uiso  ?  O
O1  1.0  0.28562029586898  0.17298754942419114  0.8019206420123217  Uiso  ?  O
O1  1.0  0.32087006849063693  0.17409430839601223  0.7870077855367847  Uiso  ?  O
Ce1  1.0  0.2262391451687545  0.16007708948807955  0.732583886905077  Uiso  ?  Ce
O1  1.0  0.30728739436293545  0.17342273693693325  0.8592651996778049  Uiso  ?  O
O1  1.0  0.34510932507496667  0.18086108112497584  0.8419456894463552  Uiso  ?  O
Ce1  1.0  0.2764583650993945  0.16920264542113944  0.8403489612583093  Uiso  ?  Ce
O1  1.0  0.17474951232833943  0.17110606759969094  0.36322705332463057  Uiso  ?  O
O1  1.0  0.20919553730946902  0.17639274915792288  0.34764383224234197  Uiso  ?  O
Ce1  1.0  0.17711188793727134  0.17118093999631337  0.3277327762297276  Uiso  ?  Ce
O1  1.0  0.21859661046869705  0.18086374105332045  0.470011262892393  Uiso  ?  O
O1  1.0  0.26089150853507376  0.18354953048237452  0.45346641210879596  Uiso  ?  O
Ce1  1.0  0.2295328884098984  0.1795832316940449  0.4344260353761359  Uiso  ?  Ce
Ce1  1.0  0.20382964367444906  0.17754714381926925  0.3816096991710185  Uiso  ?  Ce
O1  1.0  0.19892241956265871  0.17542529487060204  0.41709021034531024  Uiso  ?  O
O1  1.0  0.2352495175058744  0.1833176918977474  0.400824906250755  Uiso  ?  O
O1  1.0  0.27010016283944555  0.1907674679681976  0.5781962817254231  Uiso  ?  O
O1  1.0  0.3085836066466981  0.19542422021033867  0.5612646376544886  Uiso  ?  O
Ce1  1.0  0.2798797631693495  0.18701342603069812  0.5452337763660766  Uiso  ?  Ce
Ce1  1.0  0.25449957770576637  0.18759369437773166  0.48975876767856336  Uiso  ?  Ce
O1  1.0  0.24712034122304372  0.18371926485725362  0.5241884591842336  Uiso  ?  O
O1  1.0  0.2848250161446662  0.18950412839904743  0.5097368269340323  Uiso  ?  O
O1  1.0  0.27499786145881605  0.16048813501529732  0.4793189235513985  Uiso  ?  O
O1  1.0  0.26177942037102836  0.15837009243391437  0.549678068077815  Uiso  ?  O
O1  1.0  0.2958477471784133  0.16346762972130516  0.5344191348658812  Uiso  ?  O
O1  1.0  0.31843097561553185  0.20393061371358276  0.6871035027167238  Uiso  ?  O
Ce1  1.0  0.2808198618868309  0.16476792770230075  0.6424620840270274  Uiso  ?  Ce
Ce1  1.0  0.3238488027811848  0.19749220507266435  0.6522677984005854  Uiso  ?  Ce
Ce1  1.0  0.3013624587872946  0.19611519696387256  0.5955200477697962  Uiso  ?  Ce
O1  1.0  0.29411937832254426  0.1959159658408765  0.6314323756085672  Uiso  ?  O
O1  1.0  0.33556366450560265  0.2010741157709458  0.6156563318903696  Uiso  ?  O
O1  1.0  0.28622332935929623  0.16457346262667166  0.6051222325102702  Uiso  ?  O
O1  1.0  0.3240379596563371  0.16786478049692344  0.5880336834411748  Uiso  ?  O
O1  1.0  0.3122184690235246  0.1695380927299488  0.6623817207640014  Uiso  ?  O
O1  1.0  0.346650019900565  0.1729510755431133  0.6452518987929184  Uiso  ?  O
Ce1  1.0  0.2541139564110128  0.15988843306431696  0.5873525191541615  Uiso  ?  Ce
Ce1  1.0  0.32906063534298424  0.1765451048058571  0.7517030877990707  Uiso  ?  Ce
O1  1.0  0.33744197052390273  0.1743012091352199  0.7159858000022983  Uiso  ?  O
O1  1.0  0.3754586117798176  0.1761789849217989  0.6974404907571289  Uiso  ?  O
O1  1.0  0.3584839957993323  0.175499581122094  0.7666433478000302  Uiso  ?  O
O1  1.0  0.4004600437006026  0.179631566750334  0.7547225245248442  Uiso  ?  O
Ce1  1.0  0.3036537024309345  0.17012916098942102  0.6978019909747334  Uiso  ?  Ce
Ce1  1.0  0.37495384938859055  0.1840433087962088  0.8610902600983459  Uiso  ?  Ce
O1  1.0  0.3830698387774565  0.18115779523915734  0.8240072748643771  Uiso  ?  O
O1  1.0  0.4225099664331664  0.18611219794051706  0.8080023510125245  Uiso  ?  O
O1  1.0  0.41108473722880934  0.1895667175859566  0.8778537411157254  Uiso  ?  O
O1  1.0  0.4446794137810639  0.19292397757000906  0.858928694099507  Uiso  ?  O
O1  1.0  0.40051127026656863  0.15901289761656565  0.8510169614454876  Uiso  ?  O
O1  1.0  0.43888941874774273  0.1601248809818165  0.834537569281504  Uiso  ?  O
Ce1  1.0  0.35272110317314415  0.1784633780441902  0.8041377617193959  Uiso  ?  Ce
Ce1  1.0  0.42931179729594093  0.15994238702092908  0.8706917664184208  Uiso  ?  Ce
O1  1.0  0.46369678837075246  0.163477827706392  0.8875227325920965  Uiso  ?  O
O1  1.0  0.24807856187249064  0.18196151509114464  0.32914582309066664  Uiso  ?  O
O1  1.0  0.28798501848638086  0.18495520542937555  0.3106001107276793  Uiso  ?  O
Ce1  1.0  0.2551271856523476  0.18132495639179128  0.2912444941081505  Uiso  ?  Ce
O1  1.0  0.22671960702110924  0.17496152798166173  0.2724130273402834  Uiso  ?  O
O1  1.0  0.2619350033012735  0.17534323291149354  0.25647919583181866  Uiso  ?  O
O1  1.0  0.2953876337813601  0.18986229875107952  0.4344603786251291  Uiso  ?  O
O1  1.0  0.33199712829875644  0.19399705578391221  0.420983222985708  Uiso  ?  O
Ce1  1.0  0.30421636231962734  0.19122117168429234  0.3999243037305104  Uiso  ?  Ce
Ce1  1.0  0.27813534003846524  0.18213021767035784  0.3462761685532727  Uiso  ?  Ce
O1  1.0  0.27261014748407825  0.18361187524704997  0.38220976192372486  Uiso  ?  O
O1  1.0  0.31004210001088417  0.18664113817998393  0.36265664438306083  Uiso  ?  O
O1  1.0  0.304129681335316  0.15694208023452905  0.34153031921977295  Uiso  ?  O
O1  1.0  0.3290770854179952  0.16137957804858616  0.3934191587587898  Uiso  ?  O
O1  1.0  0.34705905192508824  0.19879175549573008  0.5443076360356047  Uiso  ?  O
O1  1.0  0.38472527106662563  0.19844571950386586  0.5268768676201997  Uiso  ?  O
Ce1  1.0  0.30865420725684956  0.16181336489887774  0.5012154760133707  Uiso  ?  Ce
Ce1  1.0  0.35300919874906406  0.199816216170729  0.5105350804533886  Uiso  ?  Ce
Ce1  1.0  0.3299413897290662  0.19327945569877986  0.4534776069662753  Uiso  ?  Ce
O1  1.0  0.3218965556098824  0.19522630655336798  0.489593951752533  Uiso  ?  O
O1  1.0  0.3613282879269224  0.19797226181784078  0.4715400686975303  Uiso  ?  O
O1  1.0  0.31214631361754475  0.16305123190360693  0.4659276496190773  Uiso  ?  O
O1  1.0  0.35206971308620505  0.16446698604927293  0.44559837341008823  Uiso  ?  O
O1  1.0  0.33779372115546885  0.16794339553504203  0.5164576173844408  Uiso  ?  O
O1  1.0  0.37625596362404695  0.1691928397619536  0.5008616675883487  Uiso  ?  O
Ce1  1.0  0.35522621632625784  0.17286236848475225  0.6081454551856611  Uiso  ?  Ce
Ce1  1.0  0.37690807413160327  0.20472582418076232  0.5599304577912713  Uiso  ?  Ce
O1  1.0  0.36334779171090115  0.17229298597471324  0.5725477109107098  Uiso  ?  O
O1  1.0  0.39807972280101067  0.17639651136015352  0.5560639025312137  Uiso  ?  O
O1  1.0  0.38690374569018526  0.1790956234227392  0.6271173595817618  Uiso  ?  O
O1  1.0  0.42445173075650455  0.1804288131428387  0.6107547144188658  Uiso  ?  O
Ce1  1.0  0.33210278968727003  0.16667979407350453  0.5546283066309  Uiso  ?  Ce
Ce1  1.0  0.40542721001083654  0.17963518900925823  0.7145557848418426  Uiso  ?  Ce
O1  1.0  0.40948742804353067  0.1801824143125416  0.6775717665732311  Uiso  ?  O
O1  1.0  0.4485768231238388  0.18182587693656807  0.6640679592461052  Uiso  ?  O
O1  1.0  0.435728001309382  0.18563827699514654  0.7326437900770562  Uiso  ?  O
O1  1.0  0.4742440946825651  0.1900629101137858  0.7168305710560274  Uiso  ?  O
O1  1.0  0.46454639194304853  0.1568576005557802  0.6904224854652656  Uiso  ?  O
Ce1  1.0  0.3793208677496306  0.17824289402785234  0.6604628938889952  Uiso  ?  Ce
Ce1  1.0  0.45403127949302347  0.1912990528902805  0.8208921047608279  Uiso  ?  Ce
O1  1.0  0.45951673426248224  0.1918914863188442  0.7887348434387543  Uiso  ?  O
O1  1.0  0.4972048888142649  0.19243617894716578  0.771837737985928  Uiso  ?  O
O1  1.0  0.4829465079725528  0.19101502831374825  0.8408629009759478  Uiso  ?  O
O1  1.0  0.5231428517921016  0.19759698761058148  0.8230478526264242  Uiso  ?  O
O1  1.0  0.4730925879520307  0.16525315857958262  0.8145830316415192  Uiso  ?  O
O1  1.0  0.5129811244998539  0.16759186859073388  0.7974999194671805  Uiso  ?  O
Ce1  1.0  0.43050233997478116  0.18707019655879545  0.7674580282288067  Uiso  ?  Ce
Ce1  1.0  0.4842662973415179  0.16437165795469616  0.7789060960241444  Uiso  ?  Ce
Ce1  1.0  0.45608778663094396  0.15837339910758047  0.7268862688267453  Uiso  ?  Ce
O1  1.0  0.4524518042111791  0.15845299650021727  0.7633358077818923  Uiso  ?  O
O1  1.0  0.4887152964077172  0.1625853705511322  0.7465683412898781  Uiso  ?  O
Ce1  1.0  0.478536372467994  0.19727798667300908  0.8795085045922869  Uiso  ?  Ce
Ce1  1.0  0.5309002825275517  0.1739575895679178  0.8901406661177326  Uiso  ?  Ce
Ce1  1.0  0.5072739555769757  0.1642039179607047  0.8335504386302175  Uiso  ?  Ce
O1  1.0  0.4985623944231236  0.16802379333629935  0.866624572473463  Uiso  ?  O
O1  1.0  0.5377987307814571  0.1715173483534427  0.852193211758501  Uiso  ?  O
O1  1.0  0.32290545035237667  0.18541246640770584  0.2940328706102966  Uiso  ?  O
O1  1.0  0.36089597700743925  0.19145305994071624  0.2730465456720711  Uiso  ?  O
Ce1  1.0  0.33307107095276944  0.1871320703476773  0.256853334446713  Uiso  ?  Ce
O1  1.0  0.30401867678119754  0.1802295601219838  0.2383555785809758  Uiso  ?  O
O1  1.0  0.3383627124966734  0.18530061659764635  0.22115704966788025  Uiso  ?  O
O1  1.0  0.3167573810509667  0.15585604218215746  0.2662934403305545  Uiso  ?  O
O1  1.0  0.35542454608513285  0.15777720201885953  0.25121104985021425  Uiso  ?  O
O1  1.0  0.3771724096120608  0.19491318570036323  0.4022403617084594  Uiso  ?  O
O1  1.0  0.4096897466752477  0.20017472765253516  0.38474830958646256  Uiso  ?  O
Ce1  1.0  0.33301898019726656  0.15876601895113268  0.35612897378331027  Uiso  ?  Ce
Ce1  1.0  0.38162110382714665  0.19387497648327415  0.3636842316460862  Uiso  ?  Ce
Ce1  1.0  0.35474868352609884  0.1908829671384253  0.3098785946472682  Uiso  ?  Ce
O1  1.0  0.3494291552603674  0.1885850916804907  0.3467829980424562  Uiso  ?  O
O1  1.0  0.389285698556665  0.19857642714736404  0.32961742466757527  Uiso  ?  O
O1  1.0  0.3413816216856834  0.16209878951880635  0.3216782217384207  Uiso  ?  O
O1  1.0  0.3808670126329876  0.1635389715249446  0.30197763323741506  Uiso  ?  O
O1  1.0  0.366926614118642  0.16408865238172163  0.3723150028543616  Uiso  ?  O
O1  1.0  0.40381817948566767  0.16667221503736673  0.3588370299905849  Uiso  ?  O
Ce1  1.0  0.3092515019519279  0.15665356429543273  0.3026219074527235  Uiso  ?  Ce
Ce1  1.0  0.38087542134940733  0.16790283768987058  0.46245567183977193  Uiso  ?  Ce
Ce1  1.0  0.4038874459936187  0.19915505529713326  0.4176597961110748  Uiso  ?  Ce
O1  1.0  0.39657318693946525  0.20251548463160474  0.45384811429518424  Uiso  ?  O
O1  1.0  0.38968845819158277  0.16906747064688007  0.42667122333472657  Uiso  ?  O
O1  1.0  0.4308129887128401  0.17079857686273747  0.4100162646603487  Uiso  ?  O
O1  1.0  0.4141791954089108  0.17433639853725258  0.4817577060131936  Uiso  ?  O
O1  1.0  0.4518796756357332  0.17621528661656577  0.46371895686198644  Uiso  ?  O
Ce1  1.0  0.35826253790943857  0.16685922252512164  0.41067185829339975  Uiso  ?  Ce
Ce1  1.0  0.43224659998695375  0.17844435392098182  0.5711750629542557  Uiso  ?  Ce
O1  1.0  0.43881756416608825  0.17751610814037255  0.5377631204807114  Uiso  ?  O
O1  1.0  0.4796299773502893  0.18314309140566326  0.5219318587430454  Uiso  ?  O
O1  1.0  0.4631394691420139  0.18424847858394322  0.5899852318928407  Uiso  ?  O
O1  1.0  0.5001089747054508  0.18859013988271017  0.5751231081349288  Uiso  ?  O
Ce1  1.0  0.40692579824328345  0.17359395271211836  0.5179474755542313  Uiso  ?  Ce
Ce1  1.0  0.47927475963029836  0.1877854533850468  0.678867523165074  Uiso  ?  Ce
O1  1.0  0.48574777988373596  0.18859545472423989  0.6452396420439129  Uiso  ?  O
O1  1.0  0.5246239094621228  0.19005384407528544  0.6258953093308556  Uiso  ?  O
O1  1.0  0.5102076264218979  0.19411009443239707  0.6995688374091352  Uiso  ?  O
O1  1.0  0.5477640490830796  0.19428189042399877  0.6840607478168013  Uiso  ?  O
O1  1.0  0.5014834466210116  0.1597809632858988  0.674014161530873  Uiso  ?  O
O1  1.0  0.5408350632656771  0.168547628895577  0.6535595820689271  Uiso  ?  O
Ce1  1.0  0.45375096979519386  0.18311723784967454  0.6271010945188515  Uiso  ?  Ce
Ce1  1.0  0.5113675806544405  0.15909044135005823  0.6342065834462796  Uiso  ?  Ce
Ce1  1.0  0.4859186928143153  0.15578489491557942  0.5848614895241686  Uiso  ?  Ce
O1  1.0  0.5174625292419645  0.15917087453133286  0.6020387412869783  Uiso  ?  O
Ce1  1.0  0.5275008246886358  0.19970256683715504  0.7880980677620835  Uiso  ?  Ce
O1  1.0  0.5346493755786744  0.1981346906550579  0.7526805838541237  Uiso  ?  O
O1  1.0  0.5744818763438151  0.19974380725870525  0.7364228251060883  Uiso  ?  O
O1  1.0  0.5582903999113137  0.20072540642256792  0.8072031341205549  Uiso  ?  O
O1  1.0  0.5507714037588728  0.17105490076430843  0.7792939366600048  Uiso  ?  O
O1  1.0  0.5881773077672939  0.17362719544639754  0.7652068595004229  Uiso  ?  O
Ce1  1.0  0.5054694990456503  0.19496975020341928  0.734141600800258  Uiso  ?  Ce
Ce1  1.0  0.5581688597527855  0.16910021805246447  0.7449960707925432  Uiso  ?  Ce
Ce1  1.0  0.5347406228351264  0.16363990687376356  0.6905092785382779  Uiso  ?  Ce
O1  1.0  0.5260053638892183  0.165091477030661  0.725895912921335  Uiso  ?  O
O1  1.0  0.5665468128956072  0.1692654397317982  0.7110822220786323  Uiso  ?  O
O1  1.0  0.641884261585135  0.18342277656139036  0.8697671713318236  Uiso  ?  O
Ce1  1.0  0.554492308367976  0.2028763837847175  0.8441953983926707  Uiso  ?  Ce
Ce1  1.0  0.6057077779685287  0.17954162929782672  0.8549857025230254  Uiso  ?  Ce
Ce1  1.0  0.5857652099075235  0.17495411236095998  0.7995084667545712  Uiso  ?  Ce
O1  1.0  0.5761074041241983  0.17668140426781567  0.8347200044932683  Uiso  ?  O
O1  1.0  0.6115057877673984  0.1815889573714602  0.814678528362368  Uiso  ?  O
O1  1.0  0.40237539908616743  0.1933790598013514  0.2575498781966456  Uiso  ?  O
O1  1.0  0.44196614389290095  0.1988067556610311  0.24101879804899212  Uiso  ?  O
Ce1  1.0  0.358813766880843  0.15870310439316584  0.2112591386989444  Uiso  ?  Ce
Ce1  1.0  0.4079291889181361  0.19142829921485277  0.22195384608974741  Uiso  ?  Ce
Ce1  1.0  0.3871379013445506  0.1891741211431534  0.1659770687858514  Uiso  ?  Ce
O1  1.0  0.37494584057868235  0.18723885604770912  0.2041138412917682  Uiso  ?  O
O1  1.0  0.41468944025513504  0.19588223602924218  0.18765817113805838  Uiso  ?  O
O1  1.0  0.36960517278370847  0.15819941555883502  0.1799878418228528  Uiso  ?  O
O1  1.0  0.4076342763750739  0.1611277653157084  0.15992155009283418  Uiso  ?  O
O1  1.0  0.39340776393928456  0.16233350456399553  0.23120173842653724  Uiso  ?  O
O1  1.0  0.4305749154145536  0.16656627753181746  0.2129864348652273  Uiso  ?  O
O1  1.0  0.44964845699937667  0.20386134163215683  0.36418316147059066  Uiso  ?  O
Ce1  1.0  0.41328610961176  0.16853596291742953  0.32118624924163797  Uiso  ?  Ce
Ce1  1.0  0.45547066711425815  0.20474732615026936  0.3279608306949787  Uiso  ?  Ce
Ce1  1.0  0.432429019574829  0.197700683311697  0.27845457228978315  Uiso  ?  Ce
O1  1.0  0.4272007628407634  0.2000095279953098  0.31335329018796465  Uiso  ?  O
O1  1.0  0.46680856795069525  0.20186259342880394  0.29182586246431425  Uiso  ?  O
O1  1.0  0.4159562101695614  0.16636169618128688  0.28609413319048094  Uiso  ?  O
O1  1.0  0.4567948814456415  0.17148927889399607  0.26801686917885303  Uiso  ?  O
O1  1.0  0.4409409706452764  0.16838665397963146  0.34143305993484485  Uiso  ?  O
O1  1.0  0.4792467486643846  0.1747407606808502  0.3243329933683573  Uiso  ?  O
Ce1  1.0  0.38402937490344813  0.16210606812712267  0.2677351116878677  Uiso  ?  Ce
Ce1  1.0  0.4579668081945792  0.17647747300347283  0.42947132336997285  Uiso  ?  Ce
O1  1.0  0.4658012517075718  0.1737089272932827  0.394732597346744  Uiso  ?  O
O1  1.0  0.503595520840901  0.18047291067112056  0.3742500109708965  Uiso  ?  O
O1  1.0  0.48980237011193184  0.1824800673791999  0.44780822005481463  Uiso  ?  O
O1  1.0  0.5258588702367559  0.18576436085771852  0.43222358491822394  Uiso  ?  O
Ce1  1.0  0.4324939705947714  0.17369661907983125  0.37298549788799606  Uiso  ?  Ce
Ce1  1.0  0.5049443829614916  0.18648157732943407  0.5386961796332767  Uiso  ?  Ce
O1  1.0  0.5147837916112988  0.18500688537627527  0.5022701149396966  Uiso  ?  O
O1  1.0  0.5531276637393994  0.1897687944474335  0.48435608957982496  Uiso  ?  O
O1  1.0  0.54045191445369  0.18995000067481407  0.5571929202142992  Uiso  ?  O
O1  1.0  0.5756050131378773  0.1942101992529251  0.5377774682391786  Uiso  ?  O
O1  1.0  0.5285355015730653  0.16040633778844302  0.5307955786482581  Uiso  ?  O
O1  1.0  0.5662038684597316  0.15989434894167195  0.5110940060315663  Uiso  ?  O
Ce1  1.0  0.48152412423055957  0.18002134406839526  0.48481255538343804  Uiso  ?  Ce
Ce1  1.0  0.5376825805490719  0.1566746265697052  0.4942183937230778  Uiso  ?  Ce
Ce1  1.0  0.5561213799080875  0.19416816178799515  0.6469197750815122  Uiso  ?  Ce
O1  1.0  0.5640588010023886  0.19359772573250783  0.6098303407833394  Uiso  ?  O
O1  1.0  0.6022326341081454  0.20048933366836721  0.5910604966878422  Uiso  ?  O
O1  1.0  0.5874648387884778  0.20267739393115902  0.6632051695604497  Uiso  ?  O
O1  1.0  0.5776458780434697  0.16786909270442799  0.6376044902982152  Uiso  ?  O
O1  1.0  0.615415943255622  0.17176089268345687  0.621959449283169  Uiso  ?  O
Ce1  1.0  0.5302861152601311  0.19270407695409417  0.5924616080529299  Uiso  ?  Ce
Ce1  1.0  0.5857762173155424  0.16725220300566024  0.6013003472272246  Uiso  ?  Ce
Ce1  1.0  0.5644580616774608  0.16498342417512932  0.546873448998409  Uiso  ?  Ce
O1  1.0  0.553957853076228  0.16469400911631138  0.5846903268073544  Uiso  ?  O
O1  1.0  0.5949065191393097  0.16795234039430001  0.5694275890015909  Uiso  ?  O
O1  1.0  0.6298737103607743  0.174537224079667  0.7482869858414194  Uiso  ?  O
O1  1.0  0.6657871473145514  0.18109069583205556  0.7311360558577178  Uiso  ?  O
Ce1  1.0  0.5818469809753815  0.20242158869797774  0.6998879342396782  Uiso  ?  Ce
Ce1  1.0  0.636195953808854  0.17490736861423126  0.7077867151875122  Uiso  ?  Ce
Ce1  1.0  0.6104389536630044  0.17081853827637167  0.6550966031492785  Uiso  ?  Ce
O1  1.0  0.6043193281899508  0.1710218606558293  0.6916354256073863  Uiso  ?  O
O1  1.0  0.6400328440601767  0.17647689054329  0.6751192468815682  Uiso  ?  O
O1  1.0  0.6747363518955113  0.18865942931296303  0.8530172475781633  Uiso  ?  O
O1  1.0  0.715854398677859  0.1916553104132378  0.8377311059886303  Uiso  ?  O
Ce1  1.0  0.683302352681852  0.18402873375901033  0.8189187827063741  Uiso  ?  Ce
Ce1  1.0  0.6564616389037934  0.18334314446527564  0.7664188989703158  Uiso  ?  Ce
O1  1.0  0.6496913652624481  0.18251478588728706  0.8008821584658526  Uiso  ?  O
O1  1.0  0.690196789924885  0.1848547855566878  0.7789294261501304  Uiso  ?  O
O1  1.0  0.6672109224186871  0.15604961470641399  0.8277881331353781  Uiso  ?  O
O1  1.0  0.7071773186366508  0.15672599922473412  0.8113184942923816  Uiso  ?  O
Ce1  1.0  0.7095572256473338  0.19176517451386013  0.8744302182368713  Uiso  ?  Ce
O1  1.0  0.6940400851110924  0.16003303551486067  0.8805518053223882  Uiso  ?  O
O1  1.0  0.7287527424001848  0.16226447580441106  0.864479004841631  Uiso  ?  O
Ce1  1.0  0.6618612819037157  0.15683428924096565  0.8634228677156549  Uiso  ?  Ce
O1  1.0  0.4772206594359704  0.20045215280147105  0.22176174427279785  Uiso  ?  O
Ce1  1.0  0.43352520838270997  0.16760304923798247  0.1758465739691139  Uiso  ?  Ce
Ce1  1.0  0.4852547113911009  0.19966311266005746  0.1866175037687489  Uiso  ?  Ce
O1  1.0  0.45279854623771304  0.196221456395417  0.1670354000205965  Uiso  ?  O
O1  1.0  0.4906592840767236  0.1981966418315183  0.14759065860269183  Uiso  ?  O
O1  1.0  0.4452098782976804  0.16669559275223772  0.14102612714170598  Uiso  ?  O
O1  1.0  0.4656188875052948  0.16657442090698468  0.19664366150839643  Uiso  ?  O
O1  1.0  0.5061226928546138  0.17162242095791896  0.1802071206299704  Uiso  ?  O
Ce1  1.0  0.4867681273969744  0.17552142385807587  0.2860707029836404  Uiso  ?  Ce
O1  1.0  0.4926258312475219  0.17774267428508367  0.25051395854388514  Uiso  ?  O
O1  1.0  0.5301772417815861  0.17339154579048874  0.23057217063329877  Uiso  ?  O
O1  1.0  0.5165148089873818  0.17790628824732072  0.3049251626842178  Uiso  ?  O
O1  1.0  0.5569884237393322  0.18038883268203632  0.2879014484808643  Uiso  ?  O
Ce1  1.0  0.46178009784947105  0.16780055523670426  0.2320957203990701  Uiso  ?  Ce
Ce1  1.0  0.5368074195750854  0.18442138044594292  0.394525138026699  Uiso  ?  Ce
O1  1.0  0.5453674313693226  0.18273303404169733  0.3616084533957043  Uiso  ?  O
O1  1.0  0.5782183190701173  0.1898372451103973  0.33935675774277  Uiso  ?  O
O1  1.0  0.5668873249163295  0.18860130955581209  0.4130033757611702  Uiso  ?  O
O1  1.0  0.6058345981899267  0.1933287259431288  0.39222022156145  Uiso  ?  O
O1  1.0  0.5566945585115439  0.15586703681403527  0.3889183860119367  Uiso  ?  O
O1  1.0  0.5957443677906525  0.16199131703849654  0.3697160172099412  Uiso  ?  O
Ce1  1.0  0.5100326462639673  0.1799902694594886  0.33738126727260576  Uiso  ?  Ce
Ce1  1.0  0.5840975587839841  0.19492219343099465  0.5021544457210471  Uiso  ?  Ce
O1  1.0  0.5903601979207903  0.19310965092068774  0.4653504558834663  Uiso  ?  O
O1  1.0  0.6284666042623073  0.19794365444777615  0.44928687121733385  Uiso  ?  O
O1  1.0  0.6153473962883614  0.19840173181310944  0.5206213189386037  Uiso  ?  O
O1  1.0  0.6549950792720425  0.20321916494063164  0.5042236606359839  Uiso  ?  O
O1  1.0  0.6059870942406733  0.16690457810999124  0.4940376194904331  Uiso  ?  O
O1  1.0  0.6456908224058046  0.1697086345210807  0.47455882817675893  Uiso  ?  O
Ce1  1.0  0.5612305401429294  0.1861904572366962  0.448414904386721  Uiso  ?  Ce
Ce1  1.0  0.61160672971968  0.1671101630266902  0.45895153378249237  Uiso  ?  Ce
Ce1  1.0  0.590138584840792  0.15971462219861227  0.4041235224476851  Uiso  ?  Ce
O1  1.0  0.5821956806066856  0.16021980254070858  0.4413204334532188  Uiso  ?  O
O1  1.0  0.6188976826416244  0.16324641958324046  0.4243486780401787  Uiso  ?  O
Ce1  1.0  0.6337258405349083  0.2056016172367756  0.609890253398648  Uiso  ?  Ce
O1  1.0  0.6405266002966612  0.20095442985478087  0.5746507758242295  Uiso  ?  O
O1  1.0  0.6548949653330287  0.1749978356555902  0.6032160005461009  Uiso  ?  O
O1  1.0  0.6951646549414626  0.18031921785877691  0.5855741300561644  Uiso  ?  O
Ce1  1.0  0.6085740558198601  0.19703001510126644  0.5545375393699463  Uiso  ?  Ce
Ce1  1.0  0.6634199219114438  0.17373356145628766  0.5653228300791822  Uiso  ?  Ce
Ce1  1.0  0.6378832894095415  0.16769707015700583  0.5122772891556011  Uiso  ?  Ce
O1  1.0  0.6309342126206612  0.17075490670362645  0.547579109204467  Uiso  ?  O
O1  1.0  0.6710958976174134  0.17388212875173  0.531022628159985  Uiso  ?  O
O1  1.0  0.7031051951282283  0.1864820896128891  0.7126024999374126  Uiso  ?  O
O1  1.0  0.7398134298939846  0.187521903481275  0.6950470058762995  Uiso  ?  O
Ce1  1.0  0.7111658587067416  0.18275742853631927  0.6760524743721479  Uiso  ?  Ce
Ce1  1.0  0.6857491596177903  0.17989343856162598  0.6215268716572225  Uiso  ?  Ce
O1  1.0  0.6773992153959606  0.18125286404291843  0.6582714626822975  Uiso  ?  O
O1  1.0  0.7151495996480817  0.18330709344038068  0.6391820605713542  Uiso  ?  O
O1  1.0  0.7339255287315676  0.15801230981144512  0.6688038524479885  Uiso  ?  O
O1  1.0  0.7522203446331827  0.1972420777412372  0.8190145124607833  Uiso  ?  O
O1  1.0  0.7899152720168772  0.19487497525395486  0.8023771178208222  Uiso  ?  O
Ce1  1.0  0.7114293984767088  0.1583646779938415  0.7764569622272274  Uiso  ?  Ce
Ce1  1.0  0.7618482738966336  0.1948460483191425  0.7817800405487666  Uiso  ?  Ce
Ce1  1.0  0.7363205138671441  0.18672906114237267  0.7292769942960738  Uiso  ?  Ce
O1  1.0  0.7288619081570785  0.1878848075408199  0.7642536215440937  Uiso  ?  O
O1  1.0  0.7656473120859466  0.1915047314505246  0.7484566000876134  Uiso  ?  O
O1  1.0  0.7212842737795422  0.15768870412526612  0.7402441056365675  Uiso  ?  O
O1  1.0  0.7564014930026889  0.16069250859165057  0.7234008223174929  Uiso  ?  O
O1  1.0  0.7406415090928492  0.1613038175545131  0.7938376038818874  Uiso  ?  O
O1  1.0  0.7841970215061109  0.16667898648874357  0.7729999738084464  Uiso  ?  O
Ce1  1.0  0.7599669604226618  0.1690640569992543  0.8824589699720151  Uiso  ?  Ce
Ce1  1.0  0.7852384136133553  0.19341958782563248  0.8362541903565739  Uiso  ?  Ce
O1  1.0  0.7758995635103834  0.20246469486517712  0.8758255232640731  Uiso  ?  O
O1  1.0  0.8177599515072993  0.201946499159834  0.8547572081018976  Uiso  ?  O
O1  1.0  0.7687990699927182  0.16746540866403611  0.8458695814137995  Uiso  ?  O
O1  1.0  0.8052504612145363  0.17218284776883735  0.8288921355268062  Uiso  ?  O
O1  1.0  0.8289451868440296  0.17477007478034864  0.8845574130068535  Uiso  ?  O
Ce1  1.0  0.7348727682606121  0.16332840892996353  0.8308482973989062  Uiso  ?  Ce
Ce1  1.0  0.5158747465300907  0.17043434938708082  0.14565775711342682  Uiso  ?  Ce
O1  1.0  0.529577907032675  0.19973656478532084  0.13269730068586238  Uiso  ?  O
O1  1.0  0.5442850358602208  0.17601158748209134  0.16393726196479783  Uiso  ?  O
O1  1.0  0.5841915924526209  0.17881253256624116  0.14293719699523277  Uiso  ?  O
Ce1  1.0  0.5645462992501058  0.18054953169233534  0.24988220569909658  Uiso  ?  Ce
O1  1.0  0.5682690874910448  0.1821085162199636  0.21446438622365496  Uiso  ?  O
O1  1.0  0.6061064591857906  0.18315406072276771  0.1988004637371051  Uiso  ?  O
O1  1.0  0.5927354836255417  0.18506380538695064  0.26918413504774286  Uiso  ?  O
O1  1.0  0.6315501055915747  0.189771397112849  0.2519096514326151  Uiso  ?  O
O1  1.0  0.6240489181389568  0.1582543834400068  0.22590773609745765  Uiso  ?  O
Ce1  1.0  0.536490532661785  0.17612648161719116  0.1982525016226554  Uiso  ?  Ce
Ce1  1.0  0.6103160734811797  0.19241730115601832  0.36027803116698554  Uiso  ?  Ce
O1  1.0  0.6183334664400976  0.1924736130867436  0.3263083147092676  Uiso  ?  O
O1  1.0  0.6563591054607515  0.19552764952527782  0.3067182255690197  Uiso  ?  O
O1  1.0  0.6418133992397056  0.19596332540418188  0.3789413044950093  Uiso  ?  O
O1  1.0  0.679384268156141  0.19678821636275862  0.3593315783275183  Uiso  ?  O
O1  1.0  0.6330560028297335  0.1615638411748901  0.3514832091077819  Uiso  ?  O
O1  1.0  0.6711872765413831  0.1675602969156223  0.3340080202965466  Uiso  ?  O
Ce1  1.0  0.586810217031038  0.18638346014931723  0.30338611758267353  Uiso  ?  Ce
Ce1  1.0  0.6444353107154317  0.1647472414756345  0.3176477602905431  Uiso  ?  Ce
O1  1.0  0.6115508208219503  0.16038838440179165  0.29621786591285165  Uiso  ?  O
O1  1.0  0.6474582940816355  0.15871308227752393  0.27941446902385575  Uiso  ?  O
Ce1  1.0  0.6598364822587259  0.201706021131578  0.465158540953046  Uiso  ?  Ce
O1  1.0  0.6657112087075895  0.19857848406472947  0.4288838476100767  Uiso  ?  O
O1  1.0  0.6795799018538675  0.17191665183080349  0.46224858329106544  Uiso  ?  O
O1  1.0  0.7191484899311514  0.17627514677326986  0.4397629900478361  Uiso  ?  O
Ce1  1.0  0.6323377608618186  0.19556743760132578  0.41261217145096896  Uiso  ?  Ce
Ce1  1.0  0.6896733888416848  0.17143280471878472  0.42282570122070146  Uiso  ?  Ce
Ce1  1.0  0.6664834559845996  0.16912375896552712  0.37020661549681877  Uiso  ?  Ce
O1  1.0  0.6587395291148942  0.1661389921891947  0.40675840831288845  Uiso  ?  O
O1  1.0  0.6960970618210816  0.17248071762551287  0.3887058400435595  Uiso  ?  O
O1  1.0  0.7317579960981987  0.1845497905402602  0.5667032533838119  Uiso  ?  O
O1  1.0  0.770197329809958  0.18864639294409308  0.552145899067589  Uiso  ?  O
Ce1  1.0  0.7390107200338873  0.1822020422844379  0.5324361966504529  Uiso  ?  Ce
Ce1  1.0  0.716327226606628  0.1797686419239535  0.4767708004281908  Uiso  ?  Ce
O1  1.0  0.7070936424454868  0.17571802863020425  0.5155248911561187  Uiso  ?  O
O1  1.0  0.7467871193820979  0.1807687292983074  0.49776212684262877  Uiso  ?  O
O1  1.0  0.782190425356445  0.18896339257620676  0.6773415680146483  Uiso  ?  O
O1  1.0  0.8182432679411409  0.19831058072283989  0.6575296193620832  Uiso  ?  O
Ce1  1.0  0.7416442660625984  0.15600874316780397  0.6305612492102003  Uiso  ?  Ce
Ce1  1.0  0.7861291520442949  0.19102205747208523  0.640583193822928  Uiso  ?  Ce
Ce1  1.0  0.7644419335418822  0.1851322031210347  0.5869880361708483  Uiso  ?  Ce
O1  1.0  0.7563649748159912  0.18917326832979628  0.6234253947559674  Uiso  ?  O
O1  1.0  0.7913964425566574  0.192043737980939  0.6041414427883962  Uiso  ?  O
O1  1.0  0.7713120382069512  0.1577316455206382  0.6505493643532698  Uiso  ?  O
O1  1.0  0.8101302612548664  0.16096005678849826  0.6340538567971904  Uiso  ?  O
O1  1.0  0.8284450127321452  0.20281656318696512  0.7815747110103143  Uiso  ?  O
Ce1  1.0  0.787597595143307  0.16426853552011872  0.7458514908499042  Uiso  ?  Ce
Ce1  1.0  0.8327654421898262  0.20001761543587768  0.7470361842354886  Uiso  ?  Ce
Ce1  1.0  0.810558148000572  0.1942028179585896  0.6945004386056202  Uiso  ?  Ce
O1  1.0  0.8032761662440642  0.19629408211421806  0.7312395896043068  Uiso  ?  O
O1  1.0  0.8427282544652982  0.19919538030568198  0.7131933549827969  Uiso  ?  O
O1  1.0  0.7951154872973641  0.16507283922897759  0.7062558991393806  Uiso  ?  O
O1  1.0  0.8349121203260803  0.16496243455911838  0.6900438014463862  Uiso  ?  O
O1  1.0  0.8191153210126658  0.16856392902262146  0.7588275501342425  Uiso  ?  O
Ce1  1.0  0.7639542719410226  0.1615772603186761  0.6864046343338703  Uiso  ?  Ce
Ce1  1.0  0.836185956409317  0.17485609732187082  0.8481075573609992  Uiso  ?  Ce
Ce1  1.0  0.8137574617972396  0.1705135043935319  0.7944125935796776  Uiso  ?  Ce
Ce1  1.0  0.64051836066098  0.1888908409807628  0.21664831291494063  Uiso  ?  Ce
O1  1.0  0.6448266844985304  0.18729100362291207  0.18222280247925413  Uiso  ?  O
O1  1.0  0.6848405357384173  0.19258005858740737  0.16319620204386057  Uiso  ?  O
O1  1.0  0.6676215552977761  0.18967585327908904  0.23465683278312238  Uiso  ?  O
O1  1.0  0.7099036506997988  0.19454280398898255  0.21747695304122833  Uiso  ?  O
O1  1.0  0.6621846468771593  0.1621869431663726  0.20947365113722743  Uiso  ?  O
O1  1.0  0.700055761873623  0.16479756110142194  0.19048451547038958  Uiso  ?  O
Ce1  1.0  0.6135288759172692  0.18595905866171122  0.1620551868199059  Uiso  ?  Ce
Ce1  1.0  0.6661489396818107  0.15819655031428342  0.1711781422923434  Uiso  ?  Ce
O1  1.0  0.6382616656413134  0.15567398957376696  0.15744238484315662  Uiso  ?  O
O1  1.0  0.675200231532735  0.15988952824354427  0.13849296667696673  Uiso  ?  O
Ce1  1.0  0.6881811287707152  0.19844331177096244  0.3255112321837507  Uiso  ?  Ce
O1  1.0  0.6938875405857421  0.19841629798406812  0.28924747275423873  Uiso  ?  O
O1  1.0  0.7303866104866056  0.20231298671176298  0.2731354125938736  Uiso  ?  O
O1  1.0  0.7200247214396585  0.2017909693603322  0.3408438365946943  Uiso  ?  O
O1  1.0  0.7070197261145758  0.16988131823972852  0.31996012487958286  Uiso  ?  O
O1  1.0  0.7484323411088583  0.17409976477469394  0.30077487938004865  Uiso  ?  O
Ce1  1.0  0.662758173842076  0.1929884036081502  0.27048700394037184  Uiso  ?  Ce
Ce1  1.0  0.7157137281431601  0.17039852560269628  0.28302877770844076  Uiso  ?  Ce
Ce1  1.0  0.6898239600162661  0.16512159825699216  0.22865937372470663  Uiso  ?  Ce
O1  1.0  0.685127664532406  0.1637332988972638  0.26559155978437693  Uiso  ?  O
O1  1.0  0.7248311245768736  0.16972092036540348  0.2426175053032856  Uiso  ?  O
O1  1.0  0.7577204773459135  0.17982148398054817  0.42510837833416876  Uiso  ?  O
O1  1.0  0.7966332850644556  0.18423021808094586  0.4066773798531246  Uiso  ?  O
Ce1  1.0  0.7128982046172028  0.2016023266824827  0.37957186271127724  Uiso  ?  Ce
Ce1  1.0  0.7654719514451345  0.17829865787739763  0.38856951955083424  Uiso  ?  Ce
Ce1  1.0  0.7392759630752342  0.17619802260592052  0.33527428678921123  Uiso  ?  Ce
O1  1.0  0.7340265486124188  0.17475894926704033  0.3724800207301045  Uiso  ?  O
O1  1.0  0.7714953829390168  0.1777327080452133  0.3539389414481233  Uiso  ?  O
O1  1.0  0.8071193729948126  0.1893130853997662  0.5309505822732855  Uiso  ?  O
Ce1  1.0  0.813385777837856  0.1896405242889073  0.4978904021820092  Uiso  ?  Ce
Ce1  1.0  0.7892085424378871  0.1833320944587322  0.44355626842407714  Uiso  ?  Ce
O1  1.0  0.781714537149304  0.1822165396284346  0.476114110380106  Uiso  ?  O
O1  1.0  0.823633466550862  0.1887472441684979  0.4619581945933495  Uiso  ?  O
O1  1.0  0.7940907446495127  0.16075439093537977  0.5047466390754791  Uiso  ?  O
O1  1.0  0.8392506565000801  0.16102771063992108  0.49051933045558394  Uiso  ?  O
Ce1  1.0  0.8181691556572697  0.16299324306802  0.5984554333997001  Uiso  ?  Ce
Ce1  1.0  0.8382761088335087  0.19454449985204766  0.549533511089817  Uiso  ?  Ce
O1  1.0  0.8302191522116656  0.19415963422261084  0.5855014296695342  Uiso  ?  O
O1  1.0  0.8196950413125599  0.16262539235595208  0.5604482455096703  Uiso  ?  O
Ce1  1.0  0.7923908834766498  0.15773482939110273  0.5445011059739097  Uiso  ?  Ce
Ce1  1.0  0.8380087305349248  0.16679937223600608  0.6513119477934237  Uiso  ?  Ce
Ce1  1.0  0.7141357352277645  0.19484125869810962  0.18206399391596442  Uiso  ?  Ce
O1  1.0  0.7211613893290928  0.19310092319975328  0.14264625213723478  Uiso  ?  O
O1  1.0  0.7451583206064719  0.1981018357134673  0.20026006046458458  Uiso  ?  O
O1  1.0  0.7338781264466209  0.1697965910653537  0.17524551736771696  Uiso  ?  O
O1  1.0  0.7750252458918406  0.16930117244808773  0.15546188001497127  Uiso  ?  O
Ce1  1.0  0.6909812355149965  0.19098974123551155  0.12735436315080398  Uiso  ?  Ce
Ce1  1.0  0.7454819733547322  0.16737883884272228  0.13852277921809467  Uiso  ?  Ce
O1  1.0  0.7870860687001594  0.17744853056587162  0.2820743807656606  Uiso  ?  O
O1  1.0  0.8245011047203213  0.18100476178777583  0.26361386558327377  Uiso  ?  O
Ce1  1.0  0.7387686553016355  0.1990452998529459  0.23328007035120232  Uiso  ?  Ce
Ce1  1.0  0.7935214033574017  0.17594458183790482  0.24348051505364462  Uiso  ?  Ce
Ce1  1.0  0.7702697318597242  0.1739315529526188  0.19222573934991236  Uiso  ?  Ce
O1  1.0  0.7616698621407437  0.1770756464320808  0.22521617263349683  Uiso  ?  O
O1  1.0  0.8001134883984753  0.1771470062322087  0.20750286817025068  Uiso  ?  O
O1  1.0  0.8322951309196025  0.18937243411001647  0.38879262406829007  Uiso  ?  O
Ce1  1.0  0.8412624678682358  0.1847836637758298  0.3571315474428571  Uiso  ?  Ce
Ce1  1.0  0.8188784249433418  0.18111747735820136  0.29930842309706013  Uiso  ?  Ce
O1  1.0  0.8124969154114612  0.1814256889516404  0.33669987720274913  Uiso  ?  O
Ce1  1.0  0.8443749533260406  0.16325710136641694  0.4556296115331518  Uiso  ?  Ce
Ce1  1.0  0.8190798533280463  0.1566352710555005  0.39901778257552045  Uiso  ?  Ce
