data_global
_audit_creation_method 'Generated by Python Script'

_symmetry_space_group_name_H-M 'P 1'
_symmetry_Int_Tables_number 1
_symmetry_cell_setting triclinic
loop_
_symmetry_equiv_pos_as_xyz
  'x, y, z'

_cell_length_a    62.37402617401193
_cell_length_b    62.37402617401193
_cell_length_c    62.37402617401193
_cell_angle_alpha 90.0
_cell_angle_beta  90.0
_cell_angle_gamma 90.0

loop_
_atom_site_label
_atom_site_occupancy
_atom_site_fract_x
_atom_site_fract_y
_atom_site_fract_z
_atom_site_adp_type
_atom_site_U_iso_or_equiv
_atom_site_type_symbol
Pt1  1.0  0.36145570900607493  0.4178031404567746  0.5001979203456787  Uiso  ?  Pt
Pt1  1.0  0.4012677103886582  0.4198992639418201  0.47938155282441813  Uiso  ?  Pt
Pt1  1.0  0.3997109768546163  0.4212513987038632  0.5239366930139804  Uiso  ?  Pt
Pt1  1.0  0.40999185411352934  0.4573975357975362  0.5021279658942862  Uiso  ?  Pt
Pt1  1.0  0.44944189626831044  0.45598889916111135  0.4773136965799962  Uiso  ?  Pt
Pt1  1.0  0.43807392915562554  0.42029527787676646  0.5015080607432143  Uiso  ?  Pt
Pt1  1.0  0.44951584096876235  0.4551858545327912  0.5238969840617839  Uiso  ?  Pt
Pt1  1.0  0.43981717633718215  0.41922367614714756  0.4565905162758819  Uiso  ?  Pt
Pt1  1.0  0.47726188681384657  0.42157566285452214  0.43396408300747336  Uiso  ?  Pt
Pt1  1.0  0.47655643091553435  0.41799176504946  0.477209064940163  Uiso  ?  Pt
Pt1  1.0  0.4882634117273631  0.4536765586022171  0.5016287569121287  Uiso  ?  Pt
Pt1  1.0  0.4908654682012302  0.45336892019459524  0.45574687728269736  Uiso  ?  Pt
Pt1  1.0  0.5172522258488198  0.41859550314983857  0.45688470529433345  Uiso  ?  Pt
Pt1  1.0  0.5149611615772087  0.4205182318483311  0.41180654108564213  Uiso  ?  Pt
Pt1  1.0  0.4409754453222399  0.4170559691983945  0.5447996199603155  Uiso  ?  Pt
Pt1  1.0  0.4764413231851829  0.4183953378335758  0.5225866165953876  Uiso  ?  Pt
Pt1  1.0  0.4757446230591072  0.41797359922290156  0.5674880133912878  Uiso  ?  Pt
Pt1  1.0  0.4895779174593314  0.45619528820582417  0.5452205638236836  Uiso  ?  Pt
Pt1  1.0  0.5166686941505565  0.41914882769362755  0.5416631456763024  Uiso  ?  Pt
Pt1  1.0  0.5149218980900352  0.42207446412814625  0.4978899118123098  Uiso  ?  Pt
Pt1  1.0  0.5115075665980376  0.4190123335727164  0.5884931081722787  Uiso  ?  Pt
Pt1  1.0  0.465461341661312  0.49129855337696615  0.5004328109247995  Uiso  ?  Pt
O1  1.0  0.7873172647498768  0.3475886259428951  0.8715824430912003  Uiso  ?  O
O1  1.0  0.8384042740483945  0.3469657598725614  0.7781371800051208  Uiso  ?  O
O1  1.0  0.8243011932265074  0.3721448166755503  0.7481439521245042  Uiso  ?  O
O1  1.0  0.8217288857460058  0.3728042387093007  0.810335020568809  Uiso  ?  O
O1  1.0  0.7891343137845381  0.34891720275457433  0.7491080200059246  Uiso  ?  O
O1  1.0  0.7869076416998829  0.34667365435048064  0.8136460610328802  Uiso  ?  O
O1  1.0  0.7725585126175486  0.37297162015686847  0.7782947813282929  Uiso  ?  O
O1  1.0  0.7370993339451293  0.34321784523538745  0.7772338324906763  Uiso  ?  O
O1  1.0  0.7305465956642986  0.34753854610204044  0.8421693955380238  Uiso  ?  O
O1  1.0  0.7184456245281574  0.37063122161323836  0.8070731215280439  Uiso  ?  O
O1  1.0  0.6809192335645474  0.3465151483696589  0.8067556860079035  Uiso  ?  O
O1  1.0  0.6834707945688855  0.34673974645419703  0.8692341797242635  Uiso  ?  O
O1  1.0  0.6293396002758834  0.348182597128434  0.8408800040346043  Uiso  ?  O
O1  1.0  0.572933630244464  0.34509419064276  0.8699359245662522  Uiso  ?  O
O1  1.0  0.8395869551930383  0.4232276917511029  0.6593130426172191  Uiso  ?  O
O1  1.0  0.8214230104656922  0.37160401498438733  0.6284083844710522  Uiso  ?  O
O1  1.0  0.82176659198476  0.37203447007587703  0.687517922478018  Uiso  ?  O
O1  1.0  0.8045547761315727  0.3947545359966271  0.657573868749772  Uiso  ?  O
O1  1.0  0.787683942219543  0.34883848905710596  0.6273881630510608  Uiso  ?  O
O1  1.0  0.785587033861959  0.34653908270027406  0.687057430089687  Uiso  ?  O
O1  1.0  0.7702703076658379  0.37085783490630325  0.6543544618737759  Uiso  ?  O
Ce1  1.0  0.7860956063245301  0.38867562046212484  0.7476120850283563  Uiso  ?  Ce
Ce1  1.0  0.7874748500739523  0.3854966199719178  0.6903010275123873  Uiso  ?  Ce
O1  1.0  0.8058656312387809  0.3950605337249067  0.7171796556048161  Uiso  ?  O
O1  1.0  0.7883854732549931  0.4204799124921604  0.6850217277626348  Uiso  ?  O
O1  1.0  0.7712835947420049  0.3734786360693541  0.7190611472949164  Uiso  ?  O
O1  1.0  0.7513744289132445  0.39932795538154203  0.6845031810473259  Uiso  ?  O
O1  1.0  0.7521324526017773  0.39524687234953154  0.747923345417783  Uiso  ?  O
O1  1.0  0.7345298203062984  0.3453765771817308  0.6566612354336375  Uiso  ?  O
Ce1  1.0  0.7361186540383072  0.3846326030361335  0.7153347366955796  Uiso  ?  Ce
O1  1.0  0.7336314316773058  0.34568133861973704  0.7164914027195098  Uiso  ?  O
O1  1.0  0.71723848591898  0.3730076598021506  0.686254981081246  Uiso  ?  O
O1  1.0  0.7171326448496356  0.37373001095838393  0.7487921227818221  Uiso  ?  O
O1  1.0  0.6982546401913102  0.39655152289111967  0.7171508630357899  Uiso  ?  O
O1  1.0  0.682175547903462  0.34764564029158446  0.6871748632576125  Uiso  ?  O
O1  1.0  0.6807420260723712  0.34901929292058226  0.7461062087921102  Uiso  ?  O
O1  1.0  0.666212102362035  0.37180162770203273  0.7196035980599077  Uiso  ?  O
Ce1  1.0  0.7337993228242919  0.3819157123556092  0.7785412885553331  Uiso  ?  Ce
Ce1  1.0  0.6822731500789866  0.38297593679050534  0.7494295906850008  Uiso  ?  Ce
O1  1.0  0.6634250333108155  0.37317317427531016  0.7754824192274201  Uiso  ?  O
O1  1.0  0.6434637237674534  0.39460125126187934  0.7476577332029327  Uiso  ?  O
O1  1.0  0.6266662834865862  0.3439813951541148  0.7168042849077404  Uiso  ?  O
Ce1  1.0  0.6282127740422765  0.3832370710225276  0.7782164793474909  Uiso  ?  Ce
O1  1.0  0.6314122244493918  0.34748279295923007  0.778080030435913  Uiso  ?  O
O1  1.0  0.6114775935553786  0.3722581532292587  0.750381619487829  Uiso  ?  O
O1  1.0  0.6081336745069376  0.3709185470431023  0.8094919534205052  Uiso  ?  O
O1  1.0  0.573945493002272  0.3441100803490535  0.7448902969582907  Uiso  ?  O
O1  1.0  0.5736748982314042  0.34637314531009195  0.8074453693548583  Uiso  ?  O
O1  1.0  0.5587351572548217  0.37231537399446385  0.7765836194513153  Uiso  ?  O
O1  1.0  0.5229676388102797  0.34787540100251146  0.7773613551520544  Uiso  ?  O
O1  1.0  0.8240452089042144  0.37106027059197305  0.5021159566569454  Uiso  ?  O
O1  1.0  0.8232935307579881  0.3708180461735107  0.5664558103926947  Uiso  ?  O
O1  1.0  0.8069270188728206  0.3969084186200666  0.5333467088147456  Uiso  ?  O
O1  1.0  0.7874662622807671  0.34683888101408333  0.5017607896246781  Uiso  ?  O
O1  1.0  0.7861709298929115  0.3464357472916406  0.5633970787349504  Uiso  ?  O
O1  1.0  0.769304939571891  0.3720647704572941  0.5339478260086482  Uiso  ?  O
Ce1  1.0  0.7881406192767035  0.38430790262757475  0.6272169847086053  Uiso  ?  Ce
Ce1  1.0  0.789138660046103  0.38425640116848603  0.564704885948644  Uiso  ?  Ce
O1  1.0  0.8085868546357893  0.39734094862564384  0.5922423445836184  Uiso  ?  O
O1  1.0  0.7920322047449504  0.42226850680242206  0.5640093957354676  Uiso  ?  O
O1  1.0  0.7850621630403154  0.42286529954251306  0.6249977788990678  Uiso  ?  O
O1  1.0  0.7737147199777757  0.3738948263164324  0.596246345572638  Uiso  ?  O
O1  1.0  0.7532653854662968  0.397966223724772  0.5673000820076394  Uiso  ?  O
O1  1.0  0.7547951726662889  0.40040308754164233  0.6253970368898533  Uiso  ?  O
O1  1.0  0.7359618940227085  0.42061716820488  0.5951973025563022  Uiso  ?  O
O1  1.0  0.7364443834870383  0.4215629563559831  0.6548098669283253  Uiso  ?  O
O1  1.0  0.7353892824580467  0.34726555637518275  0.5324698877702707  Uiso  ?  O
Ce1  1.0  0.7323769784526011  0.3830397181618646  0.594871405194171  Uiso  ?  Ce
O1  1.0  0.7359416583682765  0.3479294512203885  0.5959493586491157  Uiso  ?  O
O1  1.0  0.7180466539072428  0.37279060185673013  0.5611794780926829  Uiso  ?  O
O1  1.0  0.7181395360030953  0.37278756562722243  0.6231085546490227  Uiso  ?  O
O1  1.0  0.6991304386968297  0.39935144849468096  0.5939263884947426  Uiso  ?  O
O1  1.0  0.6823770718256364  0.3482565060685247  0.5655816075635816  Uiso  ?  O
O1  1.0  0.6794973243183177  0.34614643577683557  0.6244641614046181  Uiso  ?  O
O1  1.0  0.661436724037538  0.372047809299614  0.5964534383292969  Uiso  ?  O
Ce1  1.0  0.7362047950668593  0.38394540954408546  0.6578145541562089  Uiso  ?  Ce
Ce1  1.0  0.6791935721481199  0.38505875495288183  0.6870386359432189  Uiso  ?  Ce
Ce1  1.0  0.6818839484564029  0.38345369286780584  0.6243350321100032  Uiso  ?  Ce
O1  1.0  0.6998495609403035  0.3939776735041341  0.6554230775466113  Uiso  ?  O
O1  1.0  0.6813669464879135  0.42004854729600305  0.6249779769642709  Uiso  ?  O
O1  1.0  0.6813143363700662  0.4232200892382311  0.6849444877763307  Uiso  ?  O
O1  1.0  0.6661262560673722  0.37393411940127297  0.6550204118749683  Uiso  ?  O
O1  1.0  0.6470926069423085  0.3958572762419561  0.6229125724891167  Uiso  ?  O
O1  1.0  0.6473706204333428  0.39535495810408633  0.6842049089615388  Uiso  ?  O
O1  1.0  0.6266043867251784  0.4261916738301066  0.6537154701348965  Uiso  ?  O
O1  1.0  0.6295684908572721  0.4227483013043576  0.7154664022528271  Uiso  ?  O
O1  1.0  0.6277295910431885  0.3478097952912561  0.5949664863422692  Uiso  ?  O
Ce1  1.0  0.6228553548286776  0.3832824226787816  0.6540696979220109  Uiso  ?  Ce
O1  1.0  0.6269848029983593  0.3492312424254316  0.6561670254563273  Uiso  ?  O
O1  1.0  0.6093766057447332  0.37063697508218535  0.6268421064745613  Uiso  ?  O
O1  1.0  0.6104338779745804  0.37234566436687855  0.6880159220542618  Uiso  ?  O
O1  1.0  0.5928249631823556  0.3957172087171651  0.6547051519238234  Uiso  ?  O
O1  1.0  0.5764415778109234  0.34612698305502515  0.6255806811570974  Uiso  ?  O
O1  1.0  0.5750908050933404  0.34723846694734695  0.68719726403721  Uiso  ?  O
O1  1.0  0.5574009341706302  0.37326469337279633  0.6527072418697974  Uiso  ?  O
Ce1  1.0  0.6303173517169498  0.381620249896305  0.7157019000089228  Uiso  ?  Ce
Ce1  1.0  0.5739507990843381  0.38525294387531916  0.7489547607523611  Uiso  ?  Ce
Ce1  1.0  0.5738314758539875  0.38489346355692505  0.6833135713782197  Uiso  ?  Ce
O1  1.0  0.59363796222897  0.39916779255978035  0.7166386437016976  Uiso  ?  O
O1  1.0  0.5741012688269475  0.4231756872294065  0.6874445812270407  Uiso  ?  O
O1  1.0  0.5576551999320863  0.36977826089049926  0.7186918279957798  Uiso  ?  O
O1  1.0  0.5407967824570634  0.3968307312257679  0.6859795074841878  Uiso  ?  O
O1  1.0  0.5385039643353088  0.39879148092644556  0.7452784494312193  Uiso  ?  O
O1  1.0  0.5215562340761584  0.4202681995219741  0.7171083862692038  Uiso  ?  O
O1  1.0  0.5218435643828092  0.3481205500151325  0.6551866028147603  Uiso  ?  O
Ce1  1.0  0.5231102726426275  0.38310263504122605  0.7150738916950576  Uiso  ?  Ce
O1  1.0  0.5232555948862357  0.34763393433466255  0.7177861084907303  Uiso  ?  O
O1  1.0  0.5036741536867482  0.3712113736765685  0.6854107877336308  Uiso  ?  O
O1  1.0  0.5056707126709936  0.37351362382355846  0.7458627238630041  Uiso  ?  O
O1  1.0  0.4862334902152433  0.3991469114247895  0.7163264148942734  Uiso  ?  O
O1  1.0  0.4673817345430257  0.3470869208182009  0.6863560872017053  Uiso  ?  O
O1  1.0  0.46762826431950205  0.3454874412836817  0.7487659332689274  Uiso  ?  O
O1  1.0  0.45003168804528154  0.374007291429277  0.7150987267280922  Uiso  ?  O
Ce1  1.0  0.5214059173912121  0.3827347112623641  0.7763017353185148  Uiso  ?  Ce
Ce1  1.0  0.4676403032019856  0.38547717595532216  0.7445860893772909  Uiso  ?  Ce
O1  1.0  0.41622752321982426  0.3471177317280337  0.7130735310014479  Uiso  ?  O
O1  1.0  0.8245429349162574  0.3719957819127982  0.3796664370440505  Uiso  ?  O
O1  1.0  0.8220691767849703  0.37291545142385635  0.4438507007104188  Uiso  ?  O
O1  1.0  0.8062650412353294  0.4001077338675761  0.4108609887658595  Uiso  ?  O
O1  1.0  0.7897610640784016  0.34585394620093457  0.3801730388545364  Uiso  ?  O
O1  1.0  0.790561388413165  0.34737702594014663  0.440655640919913  Uiso  ?  O
O1  1.0  0.7720360660125362  0.37187915792136034  0.4120409343656588  Uiso  ?  O
Ce1  1.0  0.7891223830575038  0.3839441836945092  0.5058205179453716  Uiso  ?  Ce
Ce1  1.0  0.788434123610992  0.3847639681798196  0.43975291845405856  Uiso  ?  Ce
O1  1.0  0.8051857285411691  0.3958606212253026  0.47284244331193553  Uiso  ?  O
O1  1.0  0.7896192409877514  0.4216580861901726  0.4424271113126796  Uiso  ?  O
O1  1.0  0.7884093919188108  0.4204376036233523  0.5029292268988487  Uiso  ?  O
O1  1.0  0.7716840766259634  0.37238019746761103  0.4730415365735262  Uiso  ?  O
O1  1.0  0.7540073948408543  0.39699780697123466  0.4424448300340699  Uiso  ?  O
O1  1.0  0.7521466919208549  0.398636005785701  0.5027810916013818  Uiso  ?  O
O1  1.0  0.7376946402244271  0.42197506851540106  0.47224751909024104  Uiso  ?  O
O1  1.0  0.7349208537567101  0.41988448289138197  0.5324738709530125  Uiso  ?  O
O1  1.0  0.7386382547938495  0.34668265368533285  0.4098930774485174  Uiso  ?  O
Ce1  1.0  0.7387293021812354  0.38593573761566896  0.4726307836264191  Uiso  ?  Ce
O1  1.0  0.7359700949800714  0.3462916967839282  0.4725940367438347  Uiso  ?  O
O1  1.0  0.7188213546619602  0.3709605057634869  0.4392193916801211  Uiso  ?  O
O1  1.0  0.7159578136975081  0.3707992239372514  0.5017851062501087  Uiso  ?  O
O1  1.0  0.7006916406536743  0.39537426487806804  0.47223524849393583  Uiso  ?  O
O1  1.0  0.6828384342728325  0.34554888503063447  0.4386341535931089  Uiso  ?  O
O1  1.0  0.6820318174890825  0.34837321730789783  0.5051860247531437  Uiso  ?  O
O1  1.0  0.663521631309675  0.3717200517460423  0.4697255564674364  Uiso  ?  O
Ce1  1.0  0.734764403015121  0.38656472803429115  0.5312500586371562  Uiso  ?  Ce
Ce1  1.0  0.6844312933891625  0.385076840455477  0.5625228204982834  Uiso  ?  Ce
Ce1  1.0  0.6836594833271212  0.385903227561132  0.5028222551391559  Uiso  ?  Ce
O1  1.0  0.6984166974739165  0.39864227496289184  0.5304799195079523  Uiso  ?  O
O1  1.0  0.6850633243432968  0.4227406351989837  0.4995955982517485  Uiso  ?  O
O1  1.0  0.6825824468671583  0.42300418217429325  0.5644850711345403  Uiso  ?  O
O1  1.0  0.6664450763957339  0.3718349242073687  0.5306153409974799  Uiso  ?  O
O1  1.0  0.6494417122086126  0.39894070576697277  0.5014058165827485  Uiso  ?  O
O1  1.0  0.6434539537772781  0.39461106599639567  0.5623166181203222  Uiso  ?  O
O1  1.0  0.6290726303799327  0.420145263287917  0.5303718314053609  Uiso  ?  O
O1  1.0  0.6268458960729931  0.4201155900589912  0.594465680108355  Uiso  ?  O
O1  1.0  0.628053177054628  0.3480977196183133  0.4722007311719417  Uiso  ?  O
Ce1  1.0  0.6284120422919987  0.3838207840794906  0.5340460774999184  Uiso  ?  Ce
O1  1.0  0.6264186933698866  0.3451335002066158  0.5328187191499559  Uiso  ?  O
O1  1.0  0.6079552145088933  0.36926519271433783  0.5013120055883293  Uiso  ?  O
O1  1.0  0.6121416086833279  0.3718966921887172  0.5611052284830736  Uiso  ?  O
O1  1.0  0.59358627308016  0.39739253142324843  0.5312366998543261  Uiso  ?  O
O1  1.0  0.5782036318518038  0.34618379735923616  0.4997664806429508  Uiso  ?  O
O1  1.0  0.5737406409298457  0.3460743677529416  0.5603261596949939  Uiso  ?  O
O1  1.0  0.5621397859094218  0.3697483689438987  0.5291679039037731  Uiso  ?  O
Ce1  1.0  0.6285480231804761  0.38255763863078296  0.5964438877799497  Uiso  ?  Ce
Ce1  1.0  0.5771260727317337  0.38611682464006924  0.6251041779602237  Uiso  ?  Ce
Ce1  1.0  0.5760888588109793  0.38229272153750804  0.5604666819462638  Uiso  ?  Ce
O1  1.0  0.5930858042169536  0.39622166946822424  0.5940924476233238  Uiso  ?  O
O1  1.0  0.5743439222369807  0.420772905470254  0.5639085464122301  Uiso  ?  O
O1  1.0  0.5776384426813002  0.42401288638433926  0.6243991414590846  Uiso  ?  O
O1  1.0  0.557699005275848  0.3703165976617877  0.5943140306645572  Uiso  ?  O
O1  1.0  0.5412030090445297  0.40033066085278884  0.5628418305889126  Uiso  ?  O
O1  1.0  0.5402942797097782  0.3952941693394538  0.6239350032617759  Uiso  ?  O
O1  1.0  0.5250013011385841  0.42011852848918524  0.6566478335428371  Uiso  ?  O
O1  1.0  0.5258836110228136  0.34623180552049615  0.5304689659878766  Uiso  ?  O
Ce1  1.0  0.522036323438306  0.3831911036533343  0.5953050651413955  Uiso  ?  Ce
O1  1.0  0.5229738215501247  0.3477366963224342  0.5949663159506156  Uiso  ?  O
O1  1.0  0.503779096758685  0.3686384747310589  0.5610890141794718  Uiso  ?  O
O1  1.0  0.5036283017662344  0.37269885861227203  0.6252411393718911  Uiso  ?  O
O1  1.0  0.48626269872754757  0.39706870691757484  0.5940473935721763  Uiso  ?  O
O1  1.0  0.47036275101031494  0.3474461417201148  0.5648257645081455  Uiso  ?  O
O1  1.0  0.4693948154662183  0.34502225576904727  0.6227585092654394  Uiso  ?  O
O1  1.0  0.44993145613615654  0.3736636447084374  0.5930714934885616  Uiso  ?  O
Ce1  1.0  0.5220343262512431  0.38579422391616847  0.6532227099369966  Uiso  ?  Ce
Ce1  1.0  0.4644699200508697  0.38285882455729664  0.6860460745795761  Uiso  ?  Ce
Ce1  1.0  0.4689846682321419  0.3840135404322508  0.6223208403353822  Uiso  ?  Ce
O1  1.0  0.48530304800179497  0.39679945852406895  0.6536302864623299  Uiso  ?  O
O1  1.0  0.4664894342945593  0.42134267171776824  0.6234680734689059  Uiso  ?  O
O1  1.0  0.47085285182924436  0.42053372994968446  0.6848357836466025  Uiso  ?  O
O1  1.0  0.4514832861568242  0.37139964222409855  0.6556478537951232  Uiso  ?  O
O1  1.0  0.4326568857860801  0.39545149903628635  0.6236014551114695  Uiso  ?  O
O1  1.0  0.4323406380257154  0.3960364595172197  0.6817813726340373  Uiso  ?  O
O1  1.0  0.41319512153270416  0.4226017500579305  0.6520248534609879  Uiso  ?  O
O1  1.0  0.41488192973810706  0.3488673718249852  0.5922287641494426  Uiso  ?  O
Ce1  1.0  0.4167243559853288  0.3852980699797002  0.6565641200157525  Uiso  ?  Ce
O1  1.0  0.4155614982057103  0.34659062990155554  0.656901528828151  Uiso  ?  O
O1  1.0  0.3995401478561432  0.37077875676070227  0.6264153122203913  Uiso  ?  O
O1  1.0  0.3977270097688212  0.3735913596034151  0.6863478382145819  Uiso  ?  O
O1  1.0  0.38081449678274487  0.39842338579917735  0.6512108344677024  Uiso  ?  O
O1  1.0  0.3619234072083991  0.345505876320051  0.6227913501708334  Uiso  ?  O
O1  1.0  0.3620255784552977  0.3492084088649724  0.6850630204890434  Uiso  ?  O
O1  1.0  0.3417210953099497  0.3722963893892054  0.6524451294528  Uiso  ?  O
Ce1  1.0  0.414307964669785  0.3840172278294495  0.716320567541868  Uiso  ?  Ce
Ce1  1.0  0.361636950070287  0.38538190458630023  0.6845282661706391  Uiso  ?  Ce
O1  1.0  0.3072344654622895  0.3465629109150942  0.6529833242762746  Uiso  ?  O
O1  1.0  0.7897528693358172  0.34696464387647236  0.3189402026421077  Uiso  ?  O
O1  1.0  0.7717314180620999  0.3726723860498907  0.28641488029892964  Uiso  ?  O
Ce1  1.0  0.7880358062006666  0.38545048423089073  0.38061774625253636  Uiso  ?  Ce
Ce1  1.0  0.7882733360890188  0.38249065829247336  0.32210795225014305  Uiso  ?  Ce
O1  1.0  0.805254456761636  0.39534917896981375  0.34844441680069155  Uiso  ?  O
O1  1.0  0.790502563450486  0.4209318796335371  0.38284553702754287  Uiso  ?  O
O1  1.0  0.7706746531374227  0.37332060311943954  0.34590594263890834  Uiso  ?  O
O1  1.0  0.7545082835023434  0.3982478361830291  0.32057010940974917  Uiso  ?  O
O1  1.0  0.7527134138479862  0.3964725187408906  0.37498996509386234  Uiso  ?  O
O1  1.0  0.7319957564622115  0.4243763497696081  0.3472491179019426  Uiso  ?  O
O1  1.0  0.7366902915846757  0.42529511568199235  0.4127801588459205  Uiso  ?  O
O1  1.0  0.7331411781151891  0.3459804251474009  0.2891271767352745  Uiso  ?  O
Ce1  1.0  0.7341611462810075  0.3859973330717238  0.3465984849155842  Uiso  ?  Ce
O1  1.0  0.7368704068119938  0.34601106017349587  0.3492209400067917  Uiso  ?  O
O1  1.0  0.7197905627284812  0.3736850383512816  0.3152875810472213  Uiso  ?  O
O1  1.0  0.7167211797494365  0.37131107198780533  0.37967073765335907  Uiso  ?  O
O1  1.0  0.7023307182331638  0.3966635203179442  0.3497369490442994  Uiso  ?  O
O1  1.0  0.6844713017694818  0.34716428907552854  0.31942526678962996  Uiso  ?  O
O1  1.0  0.6832817404066021  0.3474643167406803  0.37934977068214365  Uiso  ?  O
O1  1.0  0.6620631388531211  0.37188826155626453  0.347589749096299  Uiso  ?  O
Ce1  1.0  0.7371336362775379  0.3812482651118465  0.4119324580449429  Uiso  ?  Ce
Ce1  1.0  0.6817630964180259  0.38643522861901564  0.44187755953155533  Uiso  ?  Ce
Ce1  1.0  0.6831666472361071  0.38325593646907236  0.3782933640898082  Uiso  ?  Ce
O1  1.0  0.7016879828620445  0.39717447123125316  0.40940802474827287  Uiso  ?  O
O1  1.0  0.6833898852331441  0.4211388516311557  0.37866200956087026  Uiso  ?  O
O1  1.0  0.680925967023074  0.4222793539668919  0.44025290560261243  Uiso  ?  O
O1  1.0  0.6632386560344985  0.3682742079719012  0.4084730643068241  Uiso  ?  O
O1  1.0  0.6488430693035182  0.3952332989053202  0.3783011838927651  Uiso  ?  O
O1  1.0  0.6457643214595127  0.3949022582795859  0.44162018080581605  Uiso  ?  O
O1  1.0  0.6297506888157971  0.423206523928058  0.4118451228629799  Uiso  ?  O
O1  1.0  0.628645710806508  0.42481587718512537  0.46906100379050986  Uiso  ?  O
O1  1.0  0.6306135370872955  0.3468521557008493  0.34735175090577114  Uiso  ?  O
Ce1  1.0  0.6290984217599093  0.3846994750363367  0.41331429464366354  Uiso  ?  Ce
O1  1.0  0.6291102442070885  0.3452353744230408  0.4095667711351308  Uiso  ?  O
O1  1.0  0.6089474174965399  0.3718977045011017  0.38145038280338506  Uiso  ?  O
O1  1.0  0.612956148179257  0.3735887666970629  0.44102392321189976  Uiso  ?  O
O1  1.0  0.5931045056692578  0.39891151185891033  0.4097746871166009  Uiso  ?  O
O1  1.0  0.5746368914244611  0.3441437791866604  0.3778167633986778  Uiso  ?  O
O1  1.0  0.5749860799640071  0.34768721744270253  0.4390117082109636  Uiso  ?  O
O1  1.0  0.5592628578157125  0.3741000708230869  0.4106134261752599  Uiso  ?  O
Ce1  1.0  0.6303943386644021  0.3828537745540256  0.46829225561541193  Uiso  ?  Ce
Ce1  1.0  0.5760262002628587  0.3864630738647825  0.5042680218302  Uiso  ?  Ce
Ce1  1.0  0.5779937116553884  0.38375883791272786  0.43953437653675037  Uiso  ?  Ce
O1  1.0  0.5949336154125964  0.3969377553842468  0.47142705125819756  Uiso  ?  O
O1  1.0  0.5798174553144528  0.4223242757320763  0.4405879842971778  Uiso  ?  O
O1  1.0  0.5757081130376351  0.4244544778055509  0.5025318830192886  Uiso  ?  O
O1  1.0  0.5588390443408404  0.370955688803088  0.4736912039416914  Uiso  ?  O
O1  1.0  0.5399019818500765  0.39424290224859565  0.4411959055155494  Uiso  ?  O
O1  1.0  0.5396235583965805  0.3982977046004089  0.500268174703226  Uiso  ?  O
O1  1.0  0.5245151357945291  0.345665323596734  0.4072545306862955  Uiso  ?  O
Ce1  1.0  0.520846962443145  0.382967266604063  0.4709215329462594  Uiso  ?  Ce
O1  1.0  0.5226203571826322  0.34876206241106045  0.4707111895942005  Uiso  ?  O
O1  1.0  0.5013851236883803  0.3705926299021515  0.4369418213886727  Uiso  ?  O
O1  1.0  0.50162943968804  0.3710134070502152  0.502093589569626  Uiso  ?  O
O1  1.0  0.4692212386887235  0.34662944507293475  0.43942420994381953  Uiso  ?  O
O1  1.0  0.46709025856685366  0.3439234948467497  0.5042624244241884  Uiso  ?  O
O1  1.0  0.45281814217130234  0.3712533733557422  0.4700939021048994  Uiso  ?  O
Ce1  1.0  0.5227765359106843  0.3809086316558251  0.529224956630653  Uiso  ?  Ce
Ce1  1.0  0.46893402039372384  0.38603947954367634  0.5641612733555199  Uiso  ?  Ce
Ce1  1.0  0.4716620158526073  0.3825992035210166  0.49980436698058783  Uiso  ?  Ce
O1  1.0  0.4547933286943479  0.37220662617418887  0.5282452419321608  Uiso  ?  O
O1  1.0  0.4146618053885882  0.42119887530659633  0.5943082277616709  Uiso  ?  O
O1  1.0  0.41785423433845187  0.346092032988564  0.4692888837534213  Uiso  ?  O
Ce1  1.0  0.41672740674528924  0.38508907658223546  0.5333227605933674  Uiso  ?  Ce
O1  1.0  0.4185167835643082  0.34402850809081664  0.5343036087035313  Uiso  ?  O
O1  1.0  0.39810850795356145  0.3709498037407256  0.502841517382712  Uiso  ?  O
O1  1.0  0.3986398858097324  0.37359042765475803  0.564679395009679  Uiso  ?  O
O1  1.0  0.3836053310988899  0.3970136989999874  0.5340999898215926  Uiso  ?  O
O1  1.0  0.36239266983323654  0.3459075955383092  0.49936653007733006  Uiso  ?  O
O1  1.0  0.3658334823491923  0.3488522286135104  0.5602633314642693  Uiso  ?  O
O1  1.0  0.34744639643882097  0.37114666670223306  0.5333727820382123  Uiso  ?  O
Ce1  1.0  0.4150266054676082  0.38605685382012556  0.5953806982483666  Uiso  ?  Ce
Ce1  1.0  0.36475649080497097  0.3852355262018319  0.625479946562127  Uiso  ?  Ce
Ce1  1.0  0.36146521633567513  0.38159713791942407  0.563055671643748  Uiso  ?  Ce
O1  1.0  0.3817105489475862  0.3953128664005117  0.5932105181348611  Uiso  ?  O
O1  1.0  0.36400366027479303  0.4208112687169126  0.5636538526403159  Uiso  ?  O
O1  1.0  0.36257254855619725  0.42106004230322286  0.6236071012433684  Uiso  ?  O
O1  1.0  0.3437864265527085  0.37355442596199084  0.5908465126616792  Uiso  ?  O
O1  1.0  0.32881283026262953  0.3949419338693828  0.558971200696482  Uiso  ?  O
O1  1.0  0.32753176583113697  0.3963762373842443  0.6234337360378976  Uiso  ?  O
O1  1.0  0.30933772664821196  0.42234025045892487  0.5926139013237146  Uiso  ?  O
O1  1.0  0.30873617284616905  0.3470510146074355  0.5327408069940331  Uiso  ?  O
Ce1  1.0  0.30984340022853313  0.38225586356183205  0.5927034292659042  Uiso  ?  Ce
O1  1.0  0.3123800857700652  0.34540054003771764  0.5911452939665571  Uiso  ?  O
O1  1.0  0.29437259638896185  0.3701459097322308  0.5612530303351123  Uiso  ?  O
O1  1.0  0.2905383060986251  0.3736808531562048  0.6269949566704345  Uiso  ?  O
O1  1.0  0.27517145258608755  0.3955166933381787  0.5892358852937818  Uiso  ?  O
O1  1.0  0.25875466146834636  0.3459991935438332  0.562807699872081  Uiso  ?  O
O1  1.0  0.2581839251698089  0.3454577131097174  0.6229613725766694  Uiso  ?  O
O1  1.0  0.2381008903420103  0.37247327038994604  0.5905824125301492  Uiso  ?  O
Ce1  1.0  0.30721819073917744  0.38500930982378156  0.6537958925846826  Uiso  ?  Ce
O1  1.0  0.7361646467704274  0.3469620922199515  0.223996900100571  Uiso  ?  O
O1  1.0  0.7222533015570021  0.37076600972603696  0.2563090431882172  Uiso  ?  O
O1  1.0  0.6852028393427179  0.3471160099050239  0.19420045580232426  Uiso  ?  O
O1  1.0  0.6830598707139188  0.3479673750972422  0.25658533632504593  Uiso  ?  O
O1  1.0  0.6655498594297502  0.37125521105217624  0.22518817938585192  Uiso  ?  O
Ce1  1.0  0.7373553328223038  0.38222525882699554  0.28889775972797577  Uiso  ?  Ce
Ce1  1.0  0.6824488309259304  0.38518043441827265  0.31679928142822933  Uiso  ?  Ce
Ce1  1.0  0.685516580084911  0.38653752317122647  0.2568497678432703  Uiso  ?  Ce
O1  1.0  0.7001836090628745  0.3959036439624818  0.2857667815331431  Uiso  ?  O
O1  1.0  0.6811239076432216  0.423132528412629  0.3203976165480711  Uiso  ?  O
O1  1.0  0.664112159192576  0.37339412272517825  0.28748525361729105  Uiso  ?  O
O1  1.0  0.6469945834976718  0.39699349104910286  0.25742948990089665  Uiso  ?  O
O1  1.0  0.6449060291139218  0.3991528032942908  0.3198630720670098  Uiso  ?  O
O1  1.0  0.6287311916631935  0.4216216818884519  0.3499952948656303  Uiso  ?  O
O1  1.0  0.6287018937847348  0.3467278221749195  0.22529861546366778  Uiso  ?  O
Ce1  1.0  0.6302181051400269  0.3830499830861621  0.28717769224979445  Uiso  ?  Ce
O1  1.0  0.6320167460708014  0.3447054259803514  0.28682448658135695  Uiso  ?  O
O1  1.0  0.612822306896523  0.3704816132778704  0.2545253923069255  Uiso  ?  O
O1  1.0  0.6122348997098772  0.3727581892821093  0.3157166847650455  Uiso  ?  O
O1  1.0  0.595743015579446  0.39508436532354124  0.284737941654416  Uiso  ?  O
O1  1.0  0.574882484131518  0.3481132174384302  0.2584055120364427  Uiso  ?  O
O1  1.0  0.5746259033221632  0.34764354707863043  0.319589847070473  Uiso  ?  O
O1  1.0  0.5597326090710991  0.3730495653546346  0.2890437656365122  Uiso  ?  O
Ce1  1.0  0.6288244274786503  0.38628249951966465  0.35034703745731915  Uiso  ?  Ce
Ce1  1.0  0.5753364203227127  0.3821930314563408  0.380123128463515  Uiso  ?  Ce
Ce1  1.0  0.5772578713831273  0.38273683272679476  0.320259974847361  Uiso  ?  Ce
O1  1.0  0.5929304416069922  0.3991958942393974  0.348502659778678  Uiso  ?  O
O1  1.0  0.5744408155929868  0.42186004244357234  0.31938954480998744  Uiso  ?  O
O1  1.0  0.577961979998941  0.4224605293048818  0.37676630928665916  Uiso  ?  O
O1  1.0  0.5597905917453626  0.3693391918488359  0.3477953946796379  Uiso  ?  O
O1  1.0  0.5433074287735464  0.3975523687239389  0.31308565371119546  Uiso  ?  O
O1  1.0  0.5415220677518505  0.3983079624861425  0.3770607513782958  Uiso  ?  O
O1  1.0  0.523804335892803  0.42457335599469836  0.3472090833031917  Uiso  ?  O
O1  1.0  0.5265562141882284  0.345035788349633  0.28564020962467446  Uiso  ?  O
Ce1  1.0  0.5215882601788142  0.3833948276191993  0.3465884619642936  Uiso  ?  Ce
O1  1.0  0.5251958276563029  0.34651847078682063  0.34908448471481324  Uiso  ?  O
O1  1.0  0.5051663403589303  0.3694497134890738  0.31934097618810725  Uiso  ?  O
O1  1.0  0.5045167503216199  0.3731033177910655  0.37658401682523523  Uiso  ?  O
O1  1.0  0.4901245523123388  0.39752584364002075  0.3495474083273336  Uiso  ?  O
O1  1.0  0.4732755823190539  0.3502811946746585  0.32030595147972507  Uiso  ?  O
O1  1.0  0.4726821388791856  0.34624776416380343  0.3792441899829446  Uiso  ?  O
O1  1.0  0.4519181337061038  0.37298157589254516  0.3493762997545422  Uiso  ?  O
Ce1  1.0  0.5222769422880879  0.38265713131631635  0.40901535062095346  Uiso  ?  Ce
Ce1  1.0  0.4685812026532178  0.38421422315297127  0.44176531660922186  Uiso  ?  Ce
Ce1  1.0  0.4710202790758518  0.38375947687501927  0.3781360503224907  Uiso  ?  Ce
O1  1.0  0.4882071746102154  0.3976001502758385  0.40605242500157707  Uiso  ?  O
O1  1.0  0.46908519229368467  0.4216706177913007  0.37862917945759805  Uiso  ?  O
O1  1.0  0.453156646686131  0.37047176266646503  0.4117221567661411  Uiso  ?  O
O1  1.0  0.4362406328654131  0.39971095914344873  0.37528549198409256  Uiso  ?  O
O1  1.0  0.41479729349705863  0.4234954421502475  0.41106826410599245  Uiso  ?  O
O1  1.0  0.41695338155582345  0.34410488242295323  0.34636200022484864  Uiso  ?  O
Ce1  1.0  0.41619365405338954  0.38318192857210626  0.4080633378746966  Uiso  ?  Ce
O1  1.0  0.4145288400655025  0.34691007085117875  0.40528789319866504  Uiso  ?  O
O1  1.0  0.39984517502378714  0.3731080388208053  0.37589535239501515  Uiso  ?  O
O1  1.0  0.3998579312853778  0.37036174315965426  0.4382889623008041  Uiso  ?  O
O1  1.0  0.3842737639322901  0.39530116319648434  0.4085897774855032  Uiso  ?  O
O1  1.0  0.3616888642168556  0.34954286870502205  0.3781165352072132  Uiso  ?  O
O1  1.0  0.36585612883112983  0.34765198372763834  0.4393075393480031  Uiso  ?  O
O1  1.0  0.3445296498062169  0.37413098625476227  0.40636619425886483  Uiso  ?  O
Ce1  1.0  0.4158167791982366  0.38417143103486057  0.4718088638421423  Uiso  ?  Ce
Ce1  1.0  0.3640352198048597  0.3827680015280009  0.5005298698674939  Uiso  ?  Ce
Ce1  1.0  0.3636429468034073  0.3826759588712581  0.43696152653906434  Uiso  ?  Ce
O1  1.0  0.38115340518737073  0.39547398943400863  0.4717713095920221  Uiso  ?  O
O1  1.0  0.3646828710002465  0.42057880669758585  0.4369096466580629  Uiso  ?  O
O1  1.0  0.34506609005779865  0.37154787189202965  0.470922502226217  Uiso  ?  O
O1  1.0  0.3291399285302708  0.40003846284414396  0.4390464335286751  Uiso  ?  O
O1  1.0  0.32908367919917936  0.3953498545602842  0.49965794390130686  Uiso  ?  O
O1  1.0  0.3079044441071625  0.4245580570475429  0.47130385982078193  Uiso  ?  O
O1  1.0  0.3084993782003619  0.41921752797928263  0.5325381139936507  Uiso  ?  O
O1  1.0  0.31146094004926594  0.3481301029048464  0.4099557506873771  Uiso  ?  O
Ce1  1.0  0.3079054652356853  0.386438316095824  0.46603735600306745  Uiso  ?  Ce
O1  1.0  0.31034227925452135  0.3489965094281  0.46887931704650904  Uiso  ?  O
O1  1.0  0.29321718466091984  0.3732648255016208  0.4374422045000401  Uiso  ?  O
O1  1.0  0.29083049871731853  0.3735910746400376  0.49837654373291546  Uiso  ?  O
O1  1.0  0.2772417538249855  0.3950081288555469  0.46861744448700743  Uiso  ?  O
O1  1.0  0.25539132054512675  0.3459923066133326  0.43788807689605874  Uiso  ?  O
O1  1.0  0.2577735319107518  0.3447282213764603  0.499375432270427  Uiso  ?  O
O1  1.0  0.24001924818734174  0.36965404375970407  0.46899950579120114  Uiso  ?  O
Ce1  1.0  0.31039900023696665  0.38269201175543455  0.5338699714276405  Uiso  ?  Ce
Ce1  1.0  0.25631242131411364  0.38442252696583556  0.5638537457189133  Uiso  ?  Ce
Ce1  1.0  0.25414426331861956  0.3839791906701093  0.5008062602213312  Uiso  ?  Ce
O1  1.0  0.2741808762177383  0.39474679599838497  0.5306584405307556  Uiso  ?  O
O1  1.0  0.2564116797079687  0.42110966107470466  0.5016831416351196  Uiso  ?  O
O1  1.0  0.25769710397116224  0.42144874232294405  0.5597912645962162  Uiso  ?  O
O1  1.0  0.2390808922424589  0.37099379509669783  0.531052189646183  Uiso  ?  O
O1  1.0  0.2221228343429542  0.39917104968478195  0.500989595691555  Uiso  ?  O
O1  1.0  0.22018870019041203  0.3962558878569915  0.5608835749875761  Uiso  ?  O
O1  1.0  0.20379851566830962  0.4232269980889349  0.532886159540046  Uiso  ?  O
O1  1.0  0.2066581294418056  0.34838263823479027  0.46822354189480614  Uiso  ?  O
Ce1  1.0  0.2063334163064959  0.3843713556935645  0.5315261860338492  Uiso  ?  Ce
O1  1.0  0.2030463447492629  0.3486317928258131  0.5328103841153307  Uiso  ?  O
O1  1.0  0.18811607167501565  0.3728815777282319  0.5002186932918439  Uiso  ?  O
O1  1.0  0.6331495987035576  0.3453068636929476  0.16443305649691706  Uiso  ?  O
O1  1.0  0.613206594207231  0.3703138305964336  0.19269172296111134  Uiso  ?  O
O1  1.0  0.5761014546826417  0.3469133695294653  0.13402923575100875  Uiso  ?  O
O1  1.0  0.5764760263197829  0.34872816353704034  0.19645190851584693  Uiso  ?  O
O1  1.0  0.5588823885036525  0.3715569225554163  0.1655513080598847  Uiso  ?  O
Ce1  1.0  0.629587794475858  0.38557661907203744  0.22617898782247842  Uiso  ?  Ce
Ce1  1.0  0.5765874522404598  0.38580644957944626  0.2561203105297435  Uiso  ?  Ce
Ce1  1.0  0.5793254550830093  0.3833058696685358  0.19860569530435312  Uiso  ?  Ce
O1  1.0  0.5960164120792163  0.3939857351741754  0.2255760306287898  Uiso  ?  O
O1  1.0  0.561664281708315  0.3729680294009908  0.228321387256246  Uiso  ?  O
O1  1.0  0.5430117229178533  0.3954384188404908  0.256519128821793  Uiso  ?  O
O1  1.0  0.5223056329594353  0.422288472823548  0.28474512306823274  Uiso  ?  O
O1  1.0  0.5261349740737051  0.34720824954758067  0.1667023339307848  Uiso  ?  O
Ce1  1.0  0.5251437288689725  0.3869330213980685  0.22669618534483  Uiso  ?  Ce
O1  1.0  0.5231493433419037  0.3482849440350421  0.22582993020451295  Uiso  ?  O
O1  1.0  0.5059024707587747  0.3715981685486841  0.19529248544250544  Uiso  ?  O
O1  1.0  0.504502201993956  0.3727893759433771  0.2578048411315228  Uiso  ?  O
O1  1.0  0.4836555722158049  0.39449765983720636  0.22641168032073233  Uiso  ?  O
O1  1.0  0.47202832487599305  0.3482882924999563  0.1915670090919348  Uiso  ?  O
O1  1.0  0.4707004197717303  0.34830643695701236  0.25773039531730996  Uiso  ?  O
O1  1.0  0.4526177969922164  0.37440132054413994  0.22717640250335583  Uiso  ?  O
Ce1  1.0  0.5252411997956292  0.38260861341327407  0.28655972182004424  Uiso  ?  Ce
Ce1  1.0  0.4684363112103254  0.38558193402970337  0.3162715764087727  Uiso  ?  Ce
Ce1  1.0  0.47278328766079447  0.38215011104812274  0.2570303955338566  Uiso  ?  Ce
O1  1.0  0.48945186792971196  0.39699289467715015  0.2870299456044734  Uiso  ?  O
O1  1.0  0.4719336715724579  0.41971313484504125  0.25655424746813144  Uiso  ?  O
O1  1.0  0.4717239969921555  0.4223627552909819  0.31732437518011314  Uiso  ?  O
O1  1.0  0.4519854098001468  0.3697438329213115  0.2875429954711767  Uiso  ?  O
O1  1.0  0.43488385393265966  0.3962459353700109  0.25589778658687407  Uiso  ?  O
O1  1.0  0.43604974940557295  0.3975041887140363  0.3158790828106334  Uiso  ?  O
O1  1.0  0.41717387001358075  0.4227949719651464  0.2872643713492885  Uiso  ?  O
O1  1.0  0.4161663883071618  0.42460280566139513  0.3482891744323639  Uiso  ?  O
O1  1.0  0.4198790572120079  0.34432349428811654  0.22621108374256552  Uiso  ?  O
Ce1  1.0  0.4162372843014575  0.3832826927125665  0.2869492927127571  Uiso  ?  Ce
O1  1.0  0.4164683378682991  0.3458819190944269  0.2815707596686642  Uiso  ?  O
O1  1.0  0.4012059488966601  0.37076032833038136  0.25461062830561004  Uiso  ?  O
O1  1.0  0.3974660487439738  0.3713379018027363  0.3171457137081871  Uiso  ?  O
O1  1.0  0.38049619956866915  0.3970620016505892  0.28480174698533733  Uiso  ?  O
O1  1.0  0.364333073679028  0.3465730659415868  0.25249316303079056  Uiso  ?  O
O1  1.0  0.36526817473576223  0.3474676588195696  0.31554877792235825  Uiso  ?  O
O1  1.0  0.34735519038667323  0.3731606272074453  0.2827054975736216  Uiso  ?  O
Ce1  1.0  0.4172684304207594  0.38448707118696823  0.3495186549195987  Uiso  ?  Ce
Ce1  1.0  0.3626357430717886  0.3852302850120247  0.3756751357777442  Uiso  ?  Ce
Ce1  1.0  0.365369193567254  0.38445594878059086  0.3160310074957076  Uiso  ?  Ce
O1  1.0  0.38170455385245244  0.3946235224399251  0.34856770784541297  Uiso  ?  O
O1  1.0  0.36483064682128874  0.41985226032112644  0.3167472525823411  Uiso  ?  O
O1  1.0  0.3641103179356016  0.42335375682715565  0.37702500944358236  Uiso  ?  O
O1  1.0  0.34673550927342733  0.372134470811053  0.3448570949976157  Uiso  ?  O
O1  1.0  0.3283445155210091  0.3978569868916567  0.31712542539174804  Uiso  ?  O
O1  1.0  0.3296537310756519  0.40039457836889275  0.37608766449049813  Uiso  ?  O
O1  1.0  0.31065284078244737  0.4244995497195687  0.34795680127421913  Uiso  ?  O
O1  1.0  0.3113190660431315  0.4239963596882033  0.4079477020303751  Uiso  ?  O
O1  1.0  0.3133492374129324  0.3465865944225745  0.284074353641723  Uiso  ?  O
Ce1  1.0  0.31136887027006027  0.38459956610298607  0.35064396576636986  Uiso  ?  Ce
O1  1.0  0.31028843171639836  0.3441224955813835  0.3469848921895615  Uiso  ?  O
O1  1.0  0.29476556803623827  0.370512976557143  0.318065699512746  Uiso  ?  O
O1  1.0  0.29426952394453343  0.3724172005701214  0.3776553734411806  Uiso  ?  O
O1  1.0  0.27682085969982656  0.39420490252124246  0.3439724874451093  Uiso  ?  O
O1  1.0  0.25801430637966594  0.34698359387692923  0.3158096337824606  Uiso  ?  O
O1  1.0  0.257824110121441  0.34640411359279677  0.3800498838285368  Uiso  ?  O
O1  1.0  0.23994664758407236  0.37113469130930393  0.3417434166220679  Uiso  ?  O
Ce1  1.0  0.3108776610477736  0.38448322024479353  0.40715387517079293  Uiso  ?  Ce
Ce1  1.0  0.2567661652773267  0.3883462436680912  0.43803345051232456  Uiso  ?  Ce
Ce1  1.0  0.25688685955557977  0.3827066537446919  0.3765243257309122  Uiso  ?  Ce
O1  1.0  0.2766605804091109  0.3953127526343188  0.41002163837615074  Uiso  ?  O
O1  1.0  0.25686593294807925  0.42050525671297984  0.37420275861562424  Uiso  ?  O
O1  1.0  0.2572767414625398  0.4220337853315768  0.43834584167438995  Uiso  ?  O
O1  1.0  0.24041286211967755  0.37495406795471325  0.4112900727860075  Uiso  ?  O
O1  1.0  0.22574139634087947  0.39758585055450923  0.3781409537375237  Uiso  ?  O
O1  1.0  0.2252895100108839  0.39877578012463133  0.44074445112052124  Uiso  ?  O
O1  1.0  0.2022823083165946  0.42307589033753945  0.4069971322155384  Uiso  ?  O
O1  1.0  0.20435260078156733  0.42259746090070593  0.4700984109858545  Uiso  ?  O
O1  1.0  0.20434646795730796  0.34643917989493417  0.3452205996198021  Uiso  ?  O
Ce1  1.0  0.20611217443827445  0.3826242450202307  0.41018655959226086  Uiso  ?  Ce
O1  1.0  0.20500273533925964  0.3436045850211731  0.40946317163119283  Uiso  ?  O
O1  1.0  0.19035064335470164  0.3720153692983346  0.3792142695531657  Uiso  ?  O
O1  1.0  0.18493980252902245  0.371665414462867  0.43644867772308016  Uiso  ?  O
O1  1.0  0.16670660222459951  0.3963496408693261  0.4064404230964869  Uiso  ?  O
Ce1  1.0  0.2036450509287798  0.38660775710551987  0.4727594822960852  Uiso  ?  Ce
O1  1.0  0.16934358995336374  0.39732428115607793  0.4685282110568319  Uiso  ?  O
O1  1.0  0.5070412576001213  0.3719144262978213  0.1326291777291042  Uiso  ?  O
O1  1.0  0.47427268332975153  0.3478841657613813  0.13428119740516023  Uiso  ?  O
Ce1  1.0  0.5231585496593715  0.3841584520374025  0.1605534147234708  Uiso  ?  Ce
Ce1  1.0  0.4706404660113119  0.3859846260606443  0.19588879778956153  Uiso  ?  Ce
O1  1.0  0.45496314854455583  0.37379915815782255  0.16433725753223744  Uiso  ?  O
O1  1.0  0.4353461593196931  0.40144560462064766  0.19605624117441858  Uiso  ?  O
O1  1.0  0.4178944425311822  0.41912113028684245  0.22283224375534094  Uiso  ?  O
Ce1  1.0  0.41521636618421454  0.3845330970485284  0.16665583249067017  Uiso  ?  Ce
O1  1.0  0.42067928149594563  0.34757813953480804  0.16634611529672158  Uiso  ?  O
O1  1.0  0.4021315305835789  0.3732757751285935  0.13281488608025932  Uiso  ?  O
O1  1.0  0.3977444718889674  0.3710501865245421  0.19199880083690027  Uiso  ?  O
O1  1.0  0.3843732740872313  0.39936731788741464  0.16471324971659032  Uiso  ?  O
O1  1.0  0.3634860024824149  0.34940516117405424  0.13115582166279005  Uiso  ?  O
O1  1.0  0.3673428439238356  0.34567134181708914  0.1938218096801336  Uiso  ?  O
O1  1.0  0.3459372311951849  0.3721318389333888  0.16508412541044204  Uiso  ?  O
Ce1  1.0  0.416846535958869  0.38483093574847166  0.22414795171192284  Uiso  ?  Ce
Ce1  1.0  0.3634665983776194  0.3841939828319804  0.2531966937096274  Uiso  ?  Ce
Ce1  1.0  0.36797698414814056  0.38583047823253236  0.19291979660981687  Uiso  ?  Ce
O1  1.0  0.3825759746485741  0.3990017058577215  0.22294570277556836  Uiso  ?  O
O1  1.0  0.3667253475235789  0.42208968453780527  0.1944161062799465  Uiso  ?  O
O1  1.0  0.365068692183849  0.4204089120011057  0.2553260734205876  Uiso  ?  O
O1  1.0  0.3486053606477833  0.37213015240429465  0.22326668002795508  Uiso  ?  O
O1  1.0  0.3293997928238033  0.39422110919209236  0.1919530496283768  Uiso  ?  O
O1  1.0  0.3285906365166818  0.3961967245263521  0.25698225070099445  Uiso  ?  O
O1  1.0  0.3103325473945861  0.4233566712723946  0.22571444182970418  Uiso  ?  O
O1  1.0  0.31053221363898437  0.4238310230974282  0.2828190897391398  Uiso  ?  O
O1  1.0  0.3114517304292521  0.3454220388756798  0.16274079950635204  Uiso  ?  O
Ce1  1.0  0.311826207776018  0.3818709144055252  0.22298520719325485  Uiso  ?  Ce
O1  1.0  0.31321754940326196  0.346555821520379  0.226100986996541  Uiso  ?  O
O1  1.0  0.29294958439828533  0.37172775377286094  0.19116531198605205  Uiso  ?  O
O1  1.0  0.2914914148742361  0.3716445789552919  0.25456155541231096  Uiso  ?  O
O1  1.0  0.2743504829507684  0.39727663220139153  0.22472359780797532  Uiso  ?  O
O1  1.0  0.25716077682254807  0.34722312599250593  0.1954320146674417  Uiso  ?  O
O1  1.0  0.2591862485993893  0.3461315735375878  0.25421046738879943  Uiso  ?  O
O1  1.0  0.24323610762966397  0.36734930762831114  0.22560083524572053  Uiso  ?  O
Ce1  1.0  0.31406919648045234  0.3831676284712215  0.28614204992087583  Uiso  ?  Ce
Ce1  1.0  0.2609629928188399  0.38373974366791597  0.3138782668952702  Uiso  ?  Ce
Ce1  1.0  0.2583293879103802  0.383169167835536  0.254110584755002  Uiso  ?  Ce
O1  1.0  0.2746969883222783  0.39606355102804286  0.28575215870824217  Uiso  ?  O
O1  1.0  0.25812749181213157  0.42293621147028704  0.25235870279434514  Uiso  ?  O
O1  1.0  0.26021083395500966  0.42263672037808603  0.3190390581767248  Uiso  ?  O
O1  1.0  0.23983459177703106  0.3719567550456903  0.2865681225403084  Uiso  ?  O
O1  1.0  0.2235879246690552  0.3987121765343119  0.25633408367771016  Uiso  ?  O
O1  1.0  0.22265613042398819  0.3963183939974566  0.31866078089949207  Uiso  ?  O
O1  1.0  0.2071035082727455  0.42526619581214503  0.28445704990439963  Uiso  ?  O
O1  1.0  0.20602256271486932  0.41873170838231855  0.3441342330155791  Uiso  ?  O
O1  1.0  0.20132391885529533  0.3471065125284643  0.22595909734791697  Uiso  ?  O
Ce1  1.0  0.2052911634260274  0.38441082260632115  0.28503572050778153  Uiso  ?  Ce
O1  1.0  0.20831343718439815  0.345614086620492  0.28645979162997176  Uiso  ?  O
O1  1.0  0.18651894887838677  0.3736111525646703  0.25289883559806875  Uiso  ?  O
O1  1.0  0.18846867689138694  0.3736305516658526  0.31825264555805827  Uiso  ?  O
O1  1.0  0.1666065177675842  0.3964702923043924  0.2880692562556475  Uiso  ?  O
Ce1  1.0  0.20334528860856874  0.38556803429915887  0.34773082415635  Uiso  ?  Ce
O1  1.0  0.17226257290005628  0.39840739021685295  0.3477501063023753  Uiso  ?  O
Ce1  1.0  0.36315003905915494  0.38557980795342184  0.13077509356333106  Uiso  ?  Ce
O1  1.0  0.3320806611476493  0.39496688965759835  0.13384488112951995  Uiso  ?  O
O1  1.0  0.31182253676203175  0.4190607614097857  0.16471219008787333  Uiso  ?  O
O1  1.0  0.2934056705272391  0.37232976626120173  0.13284771565882347  Uiso  ?  O
O1  1.0  0.2583868925966824  0.3471012660229537  0.13416185165137692  Uiso  ?  O
Ce1  1.0  0.3106343682251912  0.38383969269526713  0.16141857354246783  Uiso  ?  Ce
Ce1  1.0  0.2582186618607202  0.3820138067892782  0.19276772629124178  Uiso  ?  Ce
Ce1  1.0  0.2585437165108534  0.3850126207161451  0.1326899459512533  Uiso  ?  Ce
O1  1.0  0.27484943779431703  0.39691111550847347  0.16416143131639024  Uiso  ?  O
O1  1.0  0.2594813924502878  0.42308722931368187  0.19146411756578657  Uiso  ?  O
O1  1.0  0.24199937279244435  0.3712434473840593  0.164181825071052  Uiso  ?  O
O1  1.0  0.22364825454842605  0.39911326516888  0.1322334819682429  Uiso  ?  O
O1  1.0  0.22326929240561688  0.3957649691489372  0.19439239013335152  Uiso  ?  O
O1  1.0  0.20231452739040717  0.42271334831201657  0.16180879092142816  Uiso  ?  O
O1  1.0  0.20756607279149966  0.42260769939146237  0.22339502510974563  Uiso  ?  O
Ce1  1.0  0.20733413772571696  0.3851250661935331  0.1635018056951805  Uiso  ?  Ce
O1  1.0  0.2048000329043422  0.3466936766179359  0.16278112068545458  Uiso  ?  O
O1  1.0  0.18802397011800023  0.3749906557984596  0.13207415032347633  Uiso  ?  O
O1  1.0  0.18531873723813685  0.3696554652864858  0.1909965978335582  Uiso  ?  O
O1  1.0  0.17130099272309932  0.3952111908286496  0.16014484633895282  Uiso  ?  O
Ce1  1.0  0.20369084813492586  0.3849479654478405  0.22178724389526128  Uiso  ?  Ce
O1  1.0  0.16939257374416902  0.39734673361006  0.22332431099638267  Uiso  ?  O
O1  1.0  0.8395948708032391  0.2715057326191846  0.7795328022118406  Uiso  ?  O
O1  1.0  0.8219461500733223  0.2981587831262101  0.809213232676591  Uiso  ?  O
O1  1.0  0.8227177993646915  0.29686415954732653  0.8729156611572929  Uiso  ?  O
O1  1.0  0.8033909958631045  0.3218342683045144  0.8426960845709691  Uiso  ?  O
Ce1  1.0  0.8226360150341802  0.335267519012308  0.8714670213937452  Uiso  ?  Ce
Ce1  1.0  0.805082442960422  0.2818468983456179  0.8379246506251097  Uiso  ?  Ce
O1  1.0  0.7874045824381091  0.27363940708908957  0.8130074116366602  Uiso  ?  O
O1  1.0  0.7864159619678529  0.27214111301716165  0.8694687631755361  Uiso  ?  O
O1  1.0  0.7690479482686617  0.29701498317169517  0.8392396346252445  Uiso  ?  O
O1  1.0  0.7318441102214871  0.27296526161871  0.8412068454235476  Uiso  ?  O
Ce1  1.0  0.7507524769802283  0.2829604460437611  0.871654975693814  Uiso  ?  Ce
O1  1.0  0.7525567993597462  0.322001148266238  0.8697476316243016  Uiso  ?  O
O1  1.0  0.7158719666876985  0.29735671089304805  0.870495837160162  Uiso  ?  O
O1  1.0  0.6814488125963004  0.26915603980840935  0.8709053633296312  Uiso  ?  O
O1  1.0  0.6605464563337003  0.2981365623998746  0.9007978273054378  Uiso  ?  O
O1  1.0  0.6263152205775183  0.27194679732736926  0.9037089474585026  Uiso  ?  O
O1  1.0  0.8396760493754247  0.27265035798489834  0.6577999824535606  Uiso  ?  O
O1  1.0  0.8386203563956582  0.27179422894372074  0.7177029813523683  Uiso  ?  O
O1  1.0  0.8228567969671343  0.29748600644009465  0.6861486706510638  Uiso  ?  O
O1  1.0  0.8236289537346259  0.29700806052164636  0.7477390979306394  Uiso  ?  O
O1  1.0  0.8019115205752493  0.32238923496517913  0.7181328377837332  Uiso  ?  O
Ce1  1.0  0.8198883704002743  0.334372885353307  0.8085132669258436  Uiso  ?  Ce
Ce1  1.0  0.8219407842658536  0.3330920303063283  0.7503132313735857  Uiso  ?  Ce
O1  1.0  0.8064066252162224  0.3217316341065241  0.7807154379144566  Uiso  ?  O
Ce1  1.0  0.8055321780765224  0.28375246525262354  0.7161514531136564  Uiso  ?  Ce
O1  1.0  0.7898436477079425  0.27323825686310393  0.6876496908391896  Uiso  ?  O
O1  1.0  0.7871173194372277  0.273247730232335  0.746519224817257  Uiso  ?  O
O1  1.0  0.7692731675757276  0.2938208202579849  0.7150085498356565  Uiso  ?  O
O1  1.0  0.7352444540801688  0.2698913084370951  0.717155948938837  Uiso  ?  O
Ce1  1.0  0.8039921342953956  0.28278542995110967  0.7787204755570662  Uiso  ?  Ce
Ce1  1.0  0.753296314919554  0.28296959387749954  0.8061297000021207  Uiso  ?  Ce
Ce1  1.0  0.7487055501768252  0.2850490061028941  0.7486762375885916  Uiso  ?  Ce
Ce1  1.0  0.7683646808783473  0.3345045957320668  0.7781961218319338  Uiso  ?  Ce
O1  1.0  0.7707966405202409  0.29931206201439015  0.7766875468176653  Uiso  ?  O
O1  1.0  0.7501348815124406  0.32123867929747807  0.7472313523256982  Uiso  ?  O
O1  1.0  0.7476967589322042  0.3235987310649497  0.8099712415330281  Uiso  ?  O
O1  1.0  0.7381708459751697  0.2745388409063029  0.7779214764550092  Uiso  ?  O
O1  1.0  0.7177082259518961  0.2988979509729972  0.751256072216727  Uiso  ?  O
O1  1.0  0.7173343784153035  0.29808717634353177  0.8100295201150416  Uiso  ?  O
O1  1.0  0.6970240313167088  0.3231771862564113  0.7771246335497183  Uiso  ?  O
Ce1  1.0  0.7704392820443234  0.33747188699590847  0.8384416555622336  Uiso  ?  Ce
Ce1  1.0  0.7169245806458796  0.3320576065452063  0.8680494384234851  Uiso  ?  Ce
Ce1  1.0  0.7178586622561395  0.33349994052884346  0.8095315528250779  Uiso  ?  Ce
O1  1.0  0.6986380026883383  0.3218289460872344  0.8387729850095235  Uiso  ?  O
Ce1  1.0  0.6998031975514492  0.28469891659119667  0.781696681455962  Uiso  ?  Ce
O1  1.0  0.6803239803025268  0.27192704039290955  0.7465887902828174  Uiso  ?  O
O1  1.0  0.6812595189713082  0.2726223673680397  0.8101301343430829  Uiso  ?  O
O1  1.0  0.6622582773228981  0.29737538700345234  0.7780729437273171  Uiso  ?  O
O1  1.0  0.627011133650324  0.27217963713266313  0.7800621067111029  Uiso  ?  O
Ce1  1.0  0.6976273231632012  0.2858881286421203  0.8383166074460378  Uiso  ?  Ce
Ce1  1.0  0.6450794446867352  0.2865221395815323  0.8696282763376019  Uiso  ?  Ce
Ce1  1.0  0.6461958545351114  0.2844303361814692  0.8105133655071822  Uiso  ?  Ce
Ce1  1.0  0.6629308716139003  0.3315152181689409  0.840454289708212  Uiso  ?  Ce
O1  1.0  0.6622330589003802  0.2955877862568675  0.8408408711158503  Uiso  ?  O
O1  1.0  0.6444129110650894  0.3232428759514606  0.8063179793308226  Uiso  ?  O
O1  1.0  0.6442513229716497  0.32188309484534466  0.8685964055260174  Uiso  ?  O
O1  1.0  0.626590050815407  0.2709859327396195  0.8387958861408183  Uiso  ?  O
O1  1.0  0.612263970708471  0.29665687243138733  0.810696086954448  Uiso  ?  O
O1  1.0  0.6100398683990037  0.2981492851132113  0.8682310878355883  Uiso  ?  O
O1  1.0  0.5944352954067623  0.32270487741598514  0.8394392225513612  Uiso  ?  O
Ce1  1.0  0.6627350795748337  0.33330664537291965  0.9034114598783247  Uiso  ?  Ce
Ce1  1.0  0.6102535655983037  0.33470761601419796  0.8682803768999343  Uiso  ?  Ce
O1  1.0  0.5925946980270507  0.3218759190808879  0.899344892640281  Uiso  ?  O
Ce1  1.0  0.5919858475996721  0.28237920628649865  0.8399435785707274  Uiso  ?  Ce
O1  1.0  0.5724405818813575  0.2715671685306718  0.8081786718255894  Uiso  ?  O
O1  1.0  0.5739709483270863  0.26960731307693053  0.8713215843833477  Uiso  ?  O
O1  1.0  0.5559062807590704  0.2980297799322523  0.8388811122692282  Uiso  ?  O
O1  1.0  0.524592036617612  0.2702291181129499  0.8404548446695292  Uiso  ?  O
Ce1  1.0  0.5919507677101911  0.2828057482660019  0.9017808771829278  Uiso  ?  Ce
Ce1  1.0  0.5395097435972064  0.28143561308424786  0.869697132932512  Uiso  ?  Ce
O1  1.0  0.5597833875079731  0.29596467312943914  0.9008828466708336  Uiso  ?  O
O1  1.0  0.5387797125789351  0.32150684838341076  0.8714974503311252  Uiso  ?  O
O1  1.0  0.5181415552813721  0.27024880318874944  0.9012186911365394  Uiso  ?  O
O1  1.0  0.503648276307467  0.2938256707308859  0.8675593042118723  Uiso  ?  O
Ce1  1.0  0.4858047013405577  0.2822508756433352  0.900233496700257  Uiso  ?  Ce
O1  1.0  0.46918901799857826  0.2714593651925795  0.8693408946232036  Uiso  ?  O
O1  1.0  0.4153361776954885  0.2723352290606447  0.8995515307190496  Uiso  ?  O
O1  1.0  0.8218815652708402  0.29571014993910116  0.565875586486622  Uiso  ?  O
O1  1.0  0.8244476720231205  0.2970272572368331  0.6258770794752252  Uiso  ?  O
O1  1.0  0.807572027518454  0.31998869436184696  0.5940548472144518  Uiso  ?  O
Ce1  1.0  0.8247015569979239  0.33295500697809094  0.6855801438738335  Uiso  ?  Ce
Ce1  1.0  0.8248358426884627  0.3355920135361671  0.6255674736477745  Uiso  ?  Ce
O1  1.0  0.804946019679189  0.32148720775835143  0.6550794954653858  Uiso  ?  O
Ce1  1.0  0.8058968939160909  0.2862213300655906  0.5957147668145111  Uiso  ?  Ce
O1  1.0  0.78634282717967  0.2701283794976523  0.563823743448048  Uiso  ?  O
O1  1.0  0.7875187945248703  0.2717661853433059  0.6251639031036034  Uiso  ?  O
O1  1.0  0.7714426962851669  0.2991646006868406  0.5971684133788826  Uiso  ?  O
O1  1.0  0.7349499815649608  0.2718953368809884  0.5971694850811955  Uiso  ?  O
Ce1  1.0  0.8041696421516656  0.2843574725022336  0.6549561838265259  Uiso  ?  Ce
Ce1  1.0  0.7538658997113182  0.2847980333350199  0.6855204436334876  Uiso  ?  Ce
Ce1  1.0  0.7517644157929624  0.2867249533476569  0.6219364010187185  Uiso  ?  Ce
Ce1  1.0  0.7730438349551391  0.33419488828196076  0.6572314696334425  Uiso  ?  Ce
O1  1.0  0.7695493867346145  0.29679181137703975  0.6560978343620739  Uiso  ?  O
O1  1.0  0.7526272057328257  0.3192026061733815  0.62478420938785  Uiso  ?  O
O1  1.0  0.7512006124606441  0.3230300122024454  0.688440375721953  Uiso  ?  O
O1  1.0  0.7354947135067774  0.2730088824481087  0.6568862220235986  Uiso  ?  O
O1  1.0  0.716683879967068  0.2946342570140264  0.6266729980024641  Uiso  ?  O
O1  1.0  0.7134354376495847  0.2986847795844964  0.686147318930361  Uiso  ?  O
O1  1.0  0.6986156308804319  0.3219397566731748  0.6539419712771161  Uiso  ?  O
Ce1  1.0  0.7684817699324898  0.3342631590763083  0.7173898004660223  Uiso  ?  Ce
Ce1  1.0  0.7162092821241609  0.33580462144320616  0.7471564929072171  Uiso  ?  Ce
Ce1  1.0  0.7183135294637137  0.3354522411963197  0.6873661958285322  Uiso  ?  Ce
O1  1.0  0.6970583283690083  0.32170438602408347  0.7179701476919058  Uiso  ?  O
Ce1  1.0  0.6987852889796196  0.28418686326332554  0.6567598571935405  Uiso  ?  Ce
O1  1.0  0.681452763864501  0.27021949316335875  0.6266681742947076  Uiso  ?  O
O1  1.0  0.6798805671971077  0.2728234813288871  0.6848385648794626  Uiso  ?  O
O1  1.0  0.6625516152044795  0.2981387924776754  0.656608627965616  Uiso  ?  O
O1  1.0  0.6307207942131949  0.2735386242635734  0.6560767193579471  Uiso  ?  O
Ce1  1.0  0.7007382540721425  0.2852515678127619  0.7166187593425222  Uiso  ?  Ce
Ce1  1.0  0.6465108018431736  0.28666344609539657  0.7429394230135103  Uiso  ?  Ce
Ce1  1.0  0.6462311390767103  0.2842232339610052  0.6866670888004308  Uiso  ?  Ce
Ce1  1.0  0.6630245297309463  0.3340690372704143  0.7159594081230568  Uiso  ?  Ce
O1  1.0  0.6631390760885766  0.294780444492352  0.7154811375557024  Uiso  ?  O
O1  1.0  0.6458280168908428  0.32316714831903043  0.6861889250672208  Uiso  ?  O
O1  1.0  0.6481687940943093  0.32158441791436915  0.7503864607701599  Uiso  ?  O
O1  1.0  0.6300176588883248  0.2717793054493011  0.7165274373591813  Uiso  ?  O
O1  1.0  0.6096022052335478  0.2971445415144863  0.6877730991087605  Uiso  ?  O
O1  1.0  0.6121079476582109  0.2967859796431057  0.7461905918911176  Uiso  ?  O
O1  1.0  0.597310922437868  0.32008735375182484  0.7148808967272801  Uiso  ?  O
Ce1  1.0  0.6648588846455623  0.3317307098016782  0.7778001257317296  Uiso  ?  Ce
Ce1  1.0  0.6102416763760872  0.33380465778670054  0.8089114568341647  Uiso  ?  Ce
Ce1  1.0  0.6122262057167512  0.33266737566270754  0.7474282605493788  Uiso  ?  Ce
O1  1.0  0.590163667453715  0.32180090833474867  0.7771564618257203  Uiso  ?  O
Ce1  1.0  0.5938069556420636  0.28429010610888505  0.7160041207320663  Uiso  ?  Ce
O1  1.0  0.5754428108791367  0.2709507093539046  0.6863039765977504  Uiso  ?  O
O1  1.0  0.5757504254941826  0.2720698759080417  0.7459008197248325  Uiso  ?  O
O1  1.0  0.5566082068561123  0.2964857366741162  0.7156465498442658  Uiso  ?  O
O1  1.0  0.5251566866838313  0.27097061829365043  0.7137990535428119  Uiso  ?  O
Ce1  1.0  0.5903599194994654  0.2849340374277114  0.7774838794845774  Uiso  ?  Ce
Ce1  1.0  0.5389431554426749  0.2849168992984806  0.8056697013138878  Uiso  ?  Ce
Ce1  1.0  0.5379232683732476  0.2843473308491669  0.7470361971586181  Uiso  ?  Ce
Ce1  1.0  0.5548775622836047  0.336707762186427  0.7793834158578716  Uiso  ?  Ce
O1  1.0  0.5534455627359863  0.30010000273553794  0.7787819619978675  Uiso  ?  O
O1  1.0  0.5408278696209254  0.3202982186092338  0.7471779639998269  Uiso  ?  O
O1  1.0  0.5385815739571161  0.32362167028671207  0.8087032953772966  Uiso  ?  O
O1  1.0  0.521981415360796  0.27175442415668755  0.7765823896059356  Uiso  ?  O
O1  1.0  0.5059267849379077  0.29570076155333896  0.7466932387224666  Uiso  ?  O
O1  1.0  0.5013309884783821  0.2959885577557868  0.8074671204177255  Uiso  ?  O
O1  1.0  0.48169458044455876  0.3203513381847512  0.7790460658297652  Uiso  ?  O
Ce1  1.0  0.560140887816379  0.33403387790054023  0.8385434655716177  Uiso  ?  Ce
Ce1  1.0  0.5048087411660798  0.3327443453056291  0.8105864138346368  Uiso  ?  Ce
O1  1.0  0.4858484046552394  0.3215723350587638  0.8368844538219227  Uiso  ?  O
Ce1  1.0  0.4837990212553068  0.2844743208818165  0.776121208473403  Uiso  ?  Ce
O1  1.0  0.46517773459367334  0.2728849481158502  0.7453773377979848  Uiso  ?  O
O1  1.0  0.4664408986804551  0.2704777623682495  0.8091598279106217  Uiso  ?  O
O1  1.0  0.4521076703105563  0.294891353047645  0.7773211424394191  Uiso  ?  O
O1  1.0  0.4141957210103322  0.27198642125597255  0.7766120460646314  Uiso  ?  O
Ce1  1.0  0.48658905958723364  0.28511257212777413  0.8394444603461441  Uiso  ?  Ce
Ce1  1.0  0.4336724935711352  0.2814934721579893  0.8670433582933247  Uiso  ?  Ce
Ce1  1.0  0.4326383522610787  0.28366350693447706  0.8038706905408887  Uiso  ?  Ce
O1  1.0  0.4524079174718744  0.29454231700491795  0.8377953389450682  Uiso  ?  O
O1  1.0  0.4339418525980525  0.3229175780570803  0.8088660353734335  Uiso  ?  O
O1  1.0  0.41567846346402354  0.27077006114331953  0.8398221531648281  Uiso  ?  O
O1  1.0  0.39511429783555957  0.29855996871253954  0.804764807808037  Uiso  ?  O
O1  1.0  0.3978178741907968  0.2930438245812144  0.86607314173956  Uiso  ?  O
Ce1  1.0  0.3803530184190033  0.28369414226978185  0.8367411215038764  Uiso  ?  Ce
O1  1.0  0.36159470011387485  0.26870291344703834  0.8089875051438317  Uiso  ?  O
O1  1.0  0.35659202155739866  0.26953904568366793  0.8682433430204203  Uiso  ?  O
O1  1.0  0.347685878946609  0.2950429251897273  0.836801754364725  Uiso  ?  O
O1  1.0  0.30607846685340656  0.2727843780299232  0.8381767539841861  Uiso  ?  O
Ce1  1.0  0.32657188873416504  0.2841682377414736  0.8676238788141428  Uiso  ?  Ce
O1  1.0  0.25275975229470493  0.27374479818743974  0.8681456232399163  Uiso  ?  O
O1  1.0  0.8231272365048518  0.2972730391607148  0.44232417836071847  Uiso  ?  O
O1  1.0  0.8258894861093429  0.2951648137111002  0.5023446908959791  Uiso  ?  O
O1  1.0  0.8076760767112079  0.3214469862663898  0.4710948539811293  Uiso  ?  O
Ce1  1.0  0.8220256700599816  0.33663079378590266  0.5653475023932383  Uiso  ?  Ce
Ce1  1.0  0.8225744203238449  0.33654589138654717  0.503611407674523  Uiso  ?  Ce
O1  1.0  0.8051301238016315  0.32234244134684653  0.533614454363135  Uiso  ?  O
Ce1  1.0  0.8078530394550011  0.2800952486351817  0.4729565207761124  Uiso  ?  Ce
O1  1.0  0.7866447879309933  0.27307726063957255  0.4409811368061599  Uiso  ?  O
O1  1.0  0.7888964713583421  0.27168867973085525  0.5029777543456639  Uiso  ?  O
O1  1.0  0.7713632221408593  0.2956685225951129  0.47175193957274464  Uiso  ?  O
O1  1.0  0.7350916916531511  0.273980639136953  0.47146594900859684  Uiso  ?  O
Ce1  1.0  0.8012584843942577  0.2844226738279362  0.5331451714895518  Uiso  ?  Ce
Ce1  1.0  0.7501866190976846  0.28335541580889445  0.5639893996565479  Uiso  ?  Ce
Ce1  1.0  0.7539496835142108  0.283907078228523  0.5009235182708487  Uiso  ?  Ce
Ce1  1.0  0.772908402331404  0.3344640027734635  0.533314815929716  Uiso  ?  Ce
O1  1.0  0.7692967385514485  0.2946635351557227  0.5321182736134419  Uiso  ?  O
O1  1.0  0.7529041001822938  0.3199244720803818  0.49956377622483406  Uiso  ?  O
O1  1.0  0.7528142297470916  0.3182141666261907  0.5625071080364855  Uiso  ?  O
O1  1.0  0.7344301113340597  0.2737005916146386  0.530785663532337  Uiso  ?  O
O1  1.0  0.7188960614011701  0.29484364450240796  0.5047144560053516  Uiso  ?  O
O1  1.0  0.7167856528382032  0.29476104480698895  0.566018146177893  Uiso  ?  O
O1  1.0  0.6996159353868554  0.3233176925440307  0.531445554677979  Uiso  ?  O
Ce1  1.0  0.7740355861424535  0.33839038550536726  0.5933222926937242  Uiso  ?  Ce
Ce1  1.0  0.7148716779211297  0.33240891784103177  0.6231501442957457  Uiso  ?  Ce
Ce1  1.0  0.7172800005388451  0.3353988931075137  0.5657273086127683  Uiso  ?  Ce
O1  1.0  0.7003313392013625  0.31931912682199043  0.5960490239805815  Uiso  ?  O
Ce1  1.0  0.7014505181897921  0.28211101398444194  0.5339547908105722  Uiso  ?  Ce
O1  1.0  0.6814951098059973  0.2702000345832755  0.49868360173471016  Uiso  ?  O
O1  1.0  0.6807997177509983  0.2714450131029898  0.5658069977610533  Uiso  ?  O
O1  1.0  0.6667625457333534  0.29463331529263387  0.531750812019174  Uiso  ?  O
O1  1.0  0.6271811224718146  0.26892079612757497  0.5340557965684409  Uiso  ?  O
Ce1  1.0  0.6976419233863431  0.28507105624967  0.5954296508396806  Uiso  ?  Ce
Ce1  1.0  0.646638477492036  0.2850560676820321  0.6251163512805793  Uiso  ?  Ce
Ce1  1.0  0.644433260838123  0.28404653385397727  0.562740936276316  Uiso  ?  Ce
Ce1  1.0  0.6637212531898468  0.33324366542682743  0.5937839900058547  Uiso  ?  Ce
O1  1.0  0.6643327048101982  0.2967977393445911  0.5952276419650548  Uiso  ?  O
O1  1.0  0.6466894236951098  0.3237540113799421  0.5595953776319121  Uiso  ?  O
O1  1.0  0.6470847164157316  0.3226858797544861  0.6237926797090025  Uiso  ?  O
O1  1.0  0.6253083191067615  0.2709158716625665  0.5939263639101866  Uiso  ?  O
O1  1.0  0.6109504657248837  0.3003515701162348  0.5635038421837988  Uiso  ?  O
O1  1.0  0.6119169338650954  0.2958409074320683  0.6234780279013722  Uiso  ?  O
O1  1.0  0.5904905110232801  0.322659440248401  0.5946753417813228  Uiso  ?  O
Ce1  1.0  0.6627708137806944  0.33346806203219453  0.6556757139534183  Uiso  ?  Ce
Ce1  1.0  0.6064915936079007  0.3352967034971851  0.6888615399163521  Uiso  ?  Ce
Ce1  1.0  0.6117073268131088  0.3363103612308797  0.622663615796752  Uiso  ?  Ce
O1  1.0  0.5951636596698814  0.31896283054177693  0.6552217882284436  Uiso  ?  O
Ce1  1.0  0.5958432377041922  0.2840012791715543  0.5943555384375959  Uiso  ?  Ce
O1  1.0  0.5749358420325837  0.2713421884841641  0.5623031167989945  Uiso  ?  O
O1  1.0  0.5761366774886311  0.27334187800194826  0.6250858738584405  Uiso  ?  O
O1  1.0  0.5587224203211083  0.29735279372011286  0.5949823561082939  Uiso  ?  O
O1  1.0  0.5205698375718155  0.27113511009527064  0.5954799954046838  Uiso  ?  O
Ce1  1.0  0.5916892153296063  0.2867173039566668  0.6532513412076854  Uiso  ?  Ce
Ce1  1.0  0.5370769723982056  0.28433615765551806  0.6852397581684868  Uiso  ?  Ce
Ce1  1.0  0.5401954561454675  0.28333207817867795  0.6253357353355192  Uiso  ?  Ce
Ce1  1.0  0.5555373159325695  0.3346616028240381  0.6565664970285086  Uiso  ?  Ce
O1  1.0  0.5585047945666822  0.2941155088283126  0.6569292190924542  Uiso  ?  O
O1  1.0  0.541305704788882  0.32134775299366325  0.6248534718162558  Uiso  ?  O
O1  1.0  0.5399749110759853  0.32506888344318746  0.6827664032933306  Uiso  ?  O
O1  1.0  0.5219032862274736  0.2705530480356191  0.6559790597396309  Uiso  ?  O
O1  1.0  0.5033005450750684  0.2989501943081358  0.6206164603839444  Uiso  ?  O
O1  1.0  0.5069639717871052  0.29753450998372166  0.6839582249562078  Uiso  ?  O
O1  1.0  0.48578719509323776  0.3241025758519633  0.6531127496243544  Uiso  ?  O
Ce1  1.0  0.5591999013394545  0.3358520346483901  0.7162802678032559  Uiso  ?  Ce
Ce1  1.0  0.5044525325479896  0.3364943173968272  0.7475250852437814  Uiso  ?  Ce
Ce1  1.0  0.5039372976605359  0.3336437269449185  0.6862420527870868  Uiso  ?  Ce
O1  1.0  0.4878725941519275  0.3229542225806672  0.7166512232547891  Uiso  ?  O
Ce1  1.0  0.4878097226279056  0.2821612563796766  0.6529086216199717  Uiso  ?  Ce
O1  1.0  0.46870111576988516  0.2708577489287101  0.6227437168608851  Uiso  ?  O
O1  1.0  0.46935928701234003  0.2726992183302024  0.6863009916840742  Uiso  ?  O
O1  1.0  0.45198877059493475  0.29679197999387774  0.6538981686552596  Uiso  ?  O
O1  1.0  0.4161650917641681  0.2721336766850696  0.65327052110066  Uiso  ?  O
Ce1  1.0  0.4861921273098849  0.28282783878174533  0.7170608267065169  Uiso  ?  Ce
Ce1  1.0  0.43164833694745425  0.28188852227650824  0.745868863900346  Uiso  ?  Ce
Ce1  1.0  0.4328600925238045  0.28612040663836413  0.6868513141747502  Uiso  ?  Ce
Ce1  1.0  0.45214628822594394  0.3353651954695432  0.718594710071982  Uiso  ?  Ce
O1  1.0  0.45180455076699705  0.2946962872449492  0.716842044929761  Uiso  ?  O
O1  1.0  0.42844018158463065  0.32532450326904583  0.6871590718691394  Uiso  ?  O
O1  1.0  0.43151390575129805  0.32207755395513377  0.7452502009755719  Uiso  ?  O
O1  1.0  0.41508179380587557  0.268845338513093  0.7131296404729165  Uiso  ?  O
O1  1.0  0.3974368325071696  0.2975007005180828  0.6842840987146291  Uiso  ?  O
O1  1.0  0.3971244256239626  0.296451874680088  0.7462807098741864  Uiso  ?  O
O1  1.0  0.3798372396696374  0.32385178951751065  0.7163070922016206  Uiso  ?  O
Ce1  1.0  0.4474657496316392  0.3351374285624737  0.7797923837212497  Uiso  ?  Ce
Ce1  1.0  0.39680251760030577  0.33642802312479597  0.7483871137869545  Uiso  ?  Ce
O1  1.0  0.3776050474019936  0.3189612458018902  0.7771235041053138  Uiso  ?  O
Ce1  1.0  0.37845637173001245  0.2846244628374936  0.7128380439494698  Uiso  ?  Ce
O1  1.0  0.36096115836826365  0.27078187931797454  0.6848656891653329  Uiso  ?  O
O1  1.0  0.3605023823125376  0.27000270198245085  0.7459195679088716  Uiso  ?  O
O1  1.0  0.345771606444866  0.2962761261638821  0.7148388335519132  Uiso  ?  O
O1  1.0  0.3081385621477378  0.2716878652216221  0.7163346308382044  Uiso  ?  O
Ce1  1.0  0.3840839045075813  0.28573540452263824  0.7742927706251561  Uiso  ?  Ce
Ce1  1.0  0.32741428621508956  0.28472702460066035  0.8052034557248622  Uiso  ?  Ce
Ce1  1.0  0.3247137186149722  0.2838793553601687  0.7426297444510401  Uiso  ?  Ce
O1  1.0  0.34354167828005977  0.29620992109297495  0.7749485761403314  Uiso  ?  O
O1  1.0  0.32766421814307334  0.3195286449709276  0.7450705764835753  Uiso  ?  O
O1  1.0  0.3090459850975919  0.27202720770272604  0.7757242686457044  Uiso  ?  O
O1  1.0  0.291801904057365  0.29677862713482533  0.7436497551105129  Uiso  ?  O
O1  1.0  0.28950671404731604  0.2990546648314158  0.8064239293017894  Uiso  ?  O
Ce1  1.0  0.2742065373777263  0.2830228772284604  0.7767243182964509  Uiso  ?  Ce
O1  1.0  0.2580899436361493  0.2715944275762339  0.7476810169276459  Uiso  ?  O
O1  1.0  0.2564855765708871  0.2708645372666316  0.8084269091415097  Uiso  ?  O
O1  1.0  0.23895484777911438  0.29523579695802055  0.7751014531122463  Uiso  ?  O
O1  1.0  0.20396378459700348  0.27240557615761923  0.7746582988532106  Uiso  ?  O
Ce1  1.0  0.27121816613684696  0.28260632121639917  0.8370037088491752  Uiso  ?  Ce
Ce1  1.0  0.222102396299995  0.28223537314998415  0.80445866565263  Uiso  ?  Ce
O1  1.0  0.2032500713747598  0.27095418388080644  0.8364925242031472  Uiso  ?  O
O1  1.0  0.8236067612271536  0.29418970247331644  0.32123083297062877  Uiso  ?  O
O1  1.0  0.8248245223813478  0.2965563937084048  0.38007774245222936  Uiso  ?  O
O1  1.0  0.8065842815306952  0.32243497241970087  0.3481149288653193  Uiso  ?  O
Ce1  1.0  0.822186594931172  0.337546751950912  0.44012612165042725  Uiso  ?  Ce
Ce1  1.0  0.8260637492762632  0.3342470650477132  0.38043116694662144  Uiso  ?  Ce
O1  1.0  0.8080621277557156  0.3248168941143797  0.40941292778039506  Uiso  ?  O
Ce1  1.0  0.8067323911731811  0.2831414291689104  0.34982577410153687  Uiso  ?  Ce
O1  1.0  0.7916348870147353  0.2738541978095316  0.318729176938183  Uiso  ?  O
O1  1.0  0.7914208238144064  0.2701321348619708  0.38260417433262284  Uiso  ?  O
O1  1.0  0.7726098493251263  0.2964328134525041  0.3522746332650174  Uiso  ?  O
O1  1.0  0.7351499042192512  0.2745497729921213  0.34800572814217184  Uiso  ?  O
Ce1  1.0  0.8066864395771044  0.2830259452989899  0.41136422900299935  Uiso  ?  Ce
Ce1  1.0  0.7526742315249026  0.2820877020084084  0.44144680639365114  Uiso  ?  Ce
Ce1  1.0  0.753890828255592  0.28595545440139963  0.3795784313460245  Uiso  ?  Ce
Ce1  1.0  0.7700277839133006  0.3314262619868157  0.4115630681692608  Uiso  ?  Ce
O1  1.0  0.7687665561049073  0.2969602876411061  0.4097649145595356  Uiso  ?  O
O1  1.0  0.7563370279170142  0.3219594668909027  0.37794763797113845  Uiso  ?  O
O1  1.0  0.754743350216246  0.3254069625450352  0.4410704023034548  Uiso  ?  O
O1  1.0  0.733386723613836  0.2704942125842212  0.41060044690073577  Uiso  ?  O
O1  1.0  0.71774187362592  0.29755033193306735  0.37997951295315985  Uiso  ?  O
O1  1.0  0.7194744512982532  0.2979220716691614  0.4395605378491834  Uiso  ?  O
O1  1.0  0.7013652636167834  0.3226894065132694  0.4098428308443215  Uiso  ?  O
Ce1  1.0  0.7730985790610634  0.33503813868549054  0.4725683258759707  Uiso  ?  Ce
Ce1  1.0  0.7164520883007903  0.33193203584456255  0.5016887428463779  Uiso  ?  Ce
Ce1  1.0  0.7192642100589361  0.33652989119697774  0.4403980524396216  Uiso  ?  Ce
O1  1.0  0.7000668248560473  0.3214326612861776  0.4689190688182085  Uiso  ?  O
Ce1  1.0  0.6992388220015242  0.2848142321434558  0.4109484399326026  Uiso  ?  Ce
O1  1.0  0.681396491081431  0.26907266846836175  0.37949390660702437  Uiso  ?  O
O1  1.0  0.6838350487701474  0.2729544669827138  0.44313459353963297  Uiso  ?  O
O1  1.0  0.6652881707077961  0.2935319208355401  0.41080655378804815  Uiso  ?  O
O1  1.0  0.631072839462926  0.27128187067878284  0.410118101097281  Uiso  ?  O
Ce1  1.0  0.6997027767689287  0.2826564935843302  0.4702892856569729  Uiso  ?  Ce
Ce1  1.0  0.64760791563619  0.2852636803435095  0.5050825354688963  Uiso  ?  Ce
Ce1  1.0  0.6439670697334416  0.2855890701837109  0.4413740036013517  Uiso  ?  Ce
Ce1  1.0  0.6651032577231913  0.33688533707408275  0.4720566009971914  Uiso  ?  Ce
O1  1.0  0.6650442338429068  0.29609968872913195  0.47061705192335906  Uiso  ?  O
O1  1.0  0.6473601571003709  0.31721381133373516  0.4412593093064829  Uiso  ?  O
O1  1.0  0.6483484409775032  0.32256917955455605  0.5003587065850635  Uiso  ?  O
O1  1.0  0.6315950092703893  0.2735951853171882  0.4751069186835069  Uiso  ?  O
O1  1.0  0.6114534662760647  0.2960066278509174  0.4400222935804079  Uiso  ?  O
O1  1.0  0.6118821057929175  0.2980467947601499  0.501402118146007  Uiso  ?  O
O1  1.0  0.5948056507032886  0.3242011432657407  0.46995540439540334  Uiso  ?  O
Ce1  1.0  0.6643272704727246  0.334180317778461  0.5357416418420721  Uiso  ?  Ce
Ce1  1.0  0.6143113780351592  0.3355304637972022  0.564347487951281  Uiso  ?  Ce
Ce1  1.0  0.6103161932558395  0.333947334431341  0.5000567339993647  Uiso  ?  Ce
O1  1.0  0.5944110858106099  0.32443792694506335  0.5321816916432454  Uiso  ?  O
Ce1  1.0  0.5921213664841276  0.28239651199076277  0.470609119602057  Uiso  ?  Ce
O1  1.0  0.5775554209816249  0.27280567874737055  0.44076197400451916  Uiso  ?  O
O1  1.0  0.5782120836528092  0.272013092759343  0.5026024898912339  Uiso  ?  O
O1  1.0  0.5590859447735682  0.29606044767339773  0.4726106087914714  Uiso  ?  O
O1  1.0  0.5200442715998346  0.2724519522349  0.47082059574315555  Uiso  ?  O
Ce1  1.0  0.593128839702852  0.2862280394195428  0.531786252764495  Uiso  ?  Ce
Ce1  1.0  0.5401466899162595  0.28356205208783847  0.5613266257835061  Uiso  ?  Ce
Ce1  1.0  0.5417420975201095  0.2867155080953441  0.5015866512587928  Uiso  ?  Ce
Ce1  1.0  0.557691462458824  0.3351279628227289  0.5297040420980665  Uiso  ?  Ce
O1  1.0  0.5596148666199949  0.2946643049781056  0.5323323359739277  Uiso  ?  O
O1  1.0  0.5404546818676056  0.32175877715137857  0.5014099885351383  Uiso  ?  O
O1  1.0  0.541604545040266  0.3221641439969723  0.5661488572011094  Uiso  ?  O
O1  1.0  0.5213653126550789  0.2681762175179169  0.5310115023561762  Uiso  ?  O
O1  1.0  0.5021186211402902  0.297854677220434  0.4997441048256746  Uiso  ?  O
O1  1.0  0.5058203786618993  0.2955436958117556  0.5616900160516782  Uiso  ?  O
O1  1.0  0.4902043893157891  0.3256548317814134  0.5304363097617592  Uiso  ?  O
Ce1  1.0  0.5585692672934106  0.33768290376563526  0.5961707278798806  Uiso  ?  Ce
Ce1  1.0  0.5034151318256419  0.33195247255549554  0.6207944561556801  Uiso  ?  Ce
Ce1  1.0  0.5024099823487107  0.33316497371985215  0.5621888207970076  Uiso  ?  Ce
O1  1.0  0.48827494920380926  0.32172517532417083  0.5957637512044509  Uiso  ?  O
Ce1  1.0  0.48748856399221246  0.2846913775622584  0.5308503519351214  Uiso  ?  Ce
O1  1.0  0.4717717986143444  0.26666538807843526  0.5003714234273978  Uiso  ?  O
O1  1.0  0.4723301906373406  0.2719236032306137  0.5605536922706668  Uiso  ?  O
O1  1.0  0.451808088816573  0.29997158406354096  0.5314032000938254  Uiso  ?  O
O1  1.0  0.41686937102820015  0.2740172005753903  0.5316817290013505  Uiso  ?  O
Ce1  1.0  0.4862202834701754  0.28524158443312003  0.5924764596574521  Uiso  ?  Ce
Ce1  1.0  0.43220817392966815  0.28195399969361956  0.6208577697013168  Uiso  ?  Ce
Ce1  1.0  0.432929091577819  0.2842403493848175  0.5624975306872848  Uiso  ?  Ce
Ce1  1.0  0.4519473715027792  0.3356595195835193  0.590228495205618  Uiso  ?  Ce
O1  1.0  0.4525036579648737  0.2936425616575966  0.5965295732326169  Uiso  ?  O
O1  1.0  0.4350846247091558  0.3220922411691161  0.5648089515781484  Uiso  ?  O
O1  1.0  0.4306777844642728  0.3208622116573218  0.6213266848728037  Uiso  ?  O
O1  1.0  0.4160433448158592  0.27498409693565246  0.5934772688239506  Uiso  ?  O
O1  1.0  0.40057089766625137  0.29556227630833093  0.5597721369815574  Uiso  ?  O
O1  1.0  0.39796454976118245  0.29383752609776764  0.6201584434309171  Uiso  ?  O
O1  1.0  0.38051685484324366  0.32321285354580315  0.5911166421617673  Uiso  ?  O
Ce1  1.0  0.45347865681210875  0.335020797357975  0.6549481404273777  Uiso  ?  Ce
Ce1  1.0  0.39958389426411145  0.3330913428737937  0.6851725029960535  Uiso  ?  Ce
Ce1  1.0  0.3978266337458542  0.3343449845476499  0.6212271730862129  Uiso  ?  Ce
O1  1.0  0.38041953315431265  0.3218760081142856  0.6536190925140201  Uiso  ?  O
Ce1  1.0  0.38452578902955475  0.2846054322345063  0.5947392671097047  Uiso  ?  Ce
O1  1.0  0.3637498870731804  0.27053697737440513  0.5618100967058085  Uiso  ?  O
O1  1.0  0.36302703624558286  0.2737654140226168  0.6228672763965484  Uiso  ?  O
O1  1.0  0.3464969533451822  0.29678944364483545  0.5931493036881843  Uiso  ?  O
O1  1.0  0.3094879417295386  0.2724528656555114  0.5928244324314546  Uiso  ?  O
Ce1  1.0  0.38298619199914186  0.28527892954619133  0.6541776380828785  Uiso  ?  Ce
Ce1  1.0  0.32731021918050096  0.28456828704506976  0.6856096896863625  Uiso  ?  Ce
Ce1  1.0  0.32504442800412475  0.28777537492580235  0.6252775953617797  Uiso  ?  Ce
Ce1  1.0  0.3453091449972611  0.3351929014806939  0.6552587021382024  Uiso  ?  Ce
O1  1.0  0.3458730849784625  0.2954919969813677  0.6519366155348428  Uiso  ?  O
O1  1.0  0.3248828306951417  0.32318011286122617  0.6252315250356199  Uiso  ?  O
O1  1.0  0.32531963592815244  0.32179061844188983  0.6849791473335978  Uiso  ?  O
O1  1.0  0.30719921342556183  0.2729848421975639  0.6556966565474669  Uiso  ?  O
O1  1.0  0.29299703437268887  0.29884972389758874  0.6218728512935765  Uiso  ?  O
O1  1.0  0.2886031351065389  0.2963676786669309  0.685342645985227  Uiso  ?  O
O1  1.0  0.27412546235542345  0.322550119706582  0.6526071278979686  Uiso  ?  O
Ce1  1.0  0.3436697410364735  0.3359886014627863  0.714187816936066  Uiso  ?  Ce
Ce1  1.0  0.2919609021066968  0.3323101464934444  0.6825663927749553  Uiso  ?  Ce
O1  1.0  0.271691413430874  0.3219410933306241  0.7161956321134335  Uiso  ?  O
Ce1  1.0  0.27194886364655907  0.2838071303461643  0.6523717485505861  Uiso  ?  Ce
O1  1.0  0.2576188782593717  0.2690693674991696  0.6226163652486929  Uiso  ?  O
O1  1.0  0.2578797731119331  0.2690524941059645  0.6838985843380428  Uiso  ?  O
O1  1.0  0.23732826926147474  0.29942716183984613  0.6521908102027972  Uiso  ?  O
O1  1.0  0.2036662315615391  0.27461966457467374  0.6506033493119333  Uiso  ?  O
Ce1  1.0  0.2735971387797655  0.2854119904303316  0.7152742423774169  Uiso  ?  Ce
Ce1  1.0  0.22045243066078515  0.286324935728127  0.7467106045759933  Uiso  ?  Ce
Ce1  1.0  0.21754489287791523  0.28484021518140096  0.6841471258758102  Uiso  ?  Ce
O1  1.0  0.24050590930906038  0.2957691674196701  0.7138736303542367  Uiso  ?  O
O1  1.0  0.2208050260453481  0.3225978474845345  0.6881687039192261  Uiso  ?  O
O1  1.0  0.2033525296645481  0.27257064390352403  0.7116440526497624  Uiso  ?  O
O1  1.0  0.18740728575786486  0.29783435846286704  0.6834210009601922  Uiso  ?  O
O1  1.0  0.1859192869386834  0.29895306165939334  0.7435384886461679  Uiso  ?  O
Ce1  1.0  0.1694219384936771  0.28444195905450065  0.7142252879983573  Uiso  ?  Ce
Ce1  1.0  0.1675307102740527  0.2840347822108372  0.7767740239374537  Uiso  ?  Ce
O1  1.0  0.8224577829309686  0.2948057753413632  0.25769353028664344  Uiso  ?  O
Ce1  1.0  0.8242236202654886  0.3317535243686965  0.3185706749576498  Uiso  ?  Ce
O1  1.0  0.8088444608277844  0.32386347156121514  0.2879331697413036  Uiso  ?  O
Ce1  1.0  0.8063518448171124  0.28606097379569495  0.22750204017731895  Uiso  ?  Ce
O1  1.0  0.7876287545021121  0.27139957723444186  0.19478144095676225  Uiso  ?  O
O1  1.0  0.7909181685778923  0.26905396880629623  0.2574526638790063  Uiso  ?  O
O1  1.0  0.7721801003746229  0.29496187540855734  0.22552468666413528  Uiso  ?  O
O1  1.0  0.7374862402599118  0.27149907623439873  0.22580785534906617  Uiso  ?  O
Ce1  1.0  0.8090466824864478  0.2849325442147221  0.28819000908543746  Uiso  ?  Ce
Ce1  1.0  0.7531673766729264  0.28319492107451105  0.32024373747846013  Uiso  ?  Ce
Ce1  1.0  0.7547985941091154  0.28626608893248906  0.2583463550175664  Uiso  ?  Ce
Ce1  1.0  0.7728530993764186  0.33164481092040143  0.2900286123413323  Uiso  ?  Ce
O1  1.0  0.7723529901461242  0.2993082456924302  0.2885510739556866  Uiso  ?  O
O1  1.0  0.7562817591165981  0.3189271503133231  0.25573217251914154  Uiso  ?  O
O1  1.0  0.7533925431010039  0.32237688608917625  0.31749083637432746  Uiso  ?  O
O1  1.0  0.7388447043444354  0.2713982810970592  0.28637447834484075  Uiso  ?  O
O1  1.0  0.7211972246854785  0.29879768730962725  0.2548408458035819  Uiso  ?  O
O1  1.0  0.71740223305369  0.2968762634629655  0.3185322938547634  Uiso  ?  O
O1  1.0  0.701264231098147  0.32356423064117923  0.28724113026902137  Uiso  ?  O
Ce1  1.0  0.7734465363352457  0.3330902938875902  0.34908316267510126  Uiso  ?  Ce
Ce1  1.0  0.7189235100249665  0.335894462982799  0.37749962600839204  Uiso  ?  Ce
Ce1  1.0  0.7205447514123149  0.3325366133456332  0.316898186535134  Uiso  ?  Ce
O1  1.0  0.6979356455580294  0.32186914514851395  0.3514009833878565  Uiso  ?  O
Ce1  1.0  0.7020024727283307  0.2837945183673713  0.2858524063454361  Uiso  ?  Ce
O1  1.0  0.6830812921336435  0.2715477153112846  0.2572038783383024  Uiso  ?  O
O1  1.0  0.6815030833034837  0.2704502892323206  0.3198608664124525  Uiso  ?  O
O1  1.0  0.6679962805608819  0.2975908456944679  0.2862398612893245  Uiso  ?  O
O1  1.0  0.630849533785836  0.27114836101996537  0.28841010508459164  Uiso  ?  O
Ce1  1.0  0.6998035909905789  0.2852368361259348  0.34869190220928675  Uiso  ?  Ce
Ce1  1.0  0.6506127137327238  0.28116722357518426  0.37713934847482733  Uiso  ?  Ce
Ce1  1.0  0.6472776572231302  0.2838997864167765  0.3164570350755926  Uiso  ?  Ce
Ce1  1.0  0.6665321931936848  0.3362613993083629  0.34962214295112864  Uiso  ?  Ce
O1  1.0  0.6643902399191474  0.2969129521612043  0.35228439269922757  Uiso  ?  O
O1  1.0  0.6482025841911668  0.320903456728611  0.31835194494076374  Uiso  ?  O
O1  1.0  0.6489329124719647  0.3231165661392209  0.378301900957494  Uiso  ?  O
O1  1.0  0.6307292326419697  0.2728749727774721  0.3503518279114414  Uiso  ?  O
O1  1.0  0.6111072514937465  0.29409373164569313  0.31941404924978684  Uiso  ?  O
O1  1.0  0.6133882315963393  0.29740515849282273  0.3809951738046448  Uiso  ?  O
O1  1.0  0.5910063125166515  0.3231319546781816  0.35265927861326296  Uiso  ?  O
Ce1  1.0  0.6670211021823672  0.33231957609657026  0.4098694638325798  Uiso  ?  Ce
Ce1  1.0  0.6118959760096094  0.33341744274480717  0.4379877733215084  Uiso  ?  Ce
Ce1  1.0  0.6142692471549241  0.33538546671492625  0.38138876405744737  Uiso  ?  Ce
O1  1.0  0.5934624950645898  0.3190464521957718  0.4077490981661571  Uiso  ?  O
Ce1  1.0  0.5976522858734288  0.2854014772176548  0.3480609215275011  Uiso  ?  Ce
O1  1.0  0.5771822806661314  0.2709876440459564  0.3191019549213854  Uiso  ?  O
O1  1.0  0.5758556432193817  0.26931655438041513  0.37630682496291834  Uiso  ?  O
O1  1.0  0.5562113527893549  0.2966482949090376  0.3476039403992817  Uiso  ?  O
O1  1.0  0.5234773988343202  0.2715981428034078  0.3489600609093801  Uiso  ?  O
Ce1  1.0  0.5959478919341078  0.28394511841796694  0.40963313889173897  Uiso  ?  Ce
Ce1  1.0  0.5402343293429024  0.2834506732405766  0.4391123639626075  Uiso  ?  Ce
Ce1  1.0  0.540123376333802  0.2826961027773812  0.3782098753151437  Uiso  ?  Ce
Ce1  1.0  0.5577065140397839  0.3341206156462844  0.40859297194947164  Uiso  ?  Ce
O1  1.0  0.5601359333164733  0.29818137266431866  0.40851671960540703  Uiso  ?  O
O1  1.0  0.5408226878120702  0.3198444927515592  0.3793321193725012  Uiso  ?  O
O1  1.0  0.5395619522624634  0.32093192348041977  0.4398611642618476  Uiso  ?  O
O1  1.0  0.5227666589716312  0.27171092337627045  0.40871469641866004  Uiso  ?  O
O1  1.0  0.5072624455328708  0.29599868936050105  0.3778906627527473  Uiso  ?  O
O1  1.0  0.5016087753265935  0.296199845902282  0.438585324634366  Uiso  ?  O
O1  1.0  0.4880846579707511  0.32174462122224556  0.4093522925142136  Uiso  ?  O
Ce1  1.0  0.5577765442052302  0.3362254230205425  0.4667374508666489  Uiso  ?  Ce
Ce1  1.0  0.5066302157385703  0.3331393389800336  0.5039461923246131  Uiso  ?  Ce
Ce1  1.0  0.5033281139368607  0.3325961624713707  0.4377623724740839  Uiso  ?  Ce
O1  1.0  0.4859713443125173  0.3220299620369407  0.4689634367179836  Uiso  ?  O
Ce1  1.0  0.48732001312275364  0.28540929607109716  0.4120271762577558  Uiso  ?  Ce
O1  1.0  0.4710360988439722  0.27223770590657587  0.38142403389539586  Uiso  ?  O
O1  1.0  0.46808489125397884  0.2738883617612413  0.4413657775423452  Uiso  ?  O
O1  1.0  0.4551312623309489  0.29714987556615186  0.4076837597568938  Uiso  ?  O
O1  1.0  0.41851711101500644  0.27219562455080654  0.4105230096495025  Uiso  ?  O
Ce1  1.0  0.4878142210535403  0.28683842340773374  0.47271021710203764  Uiso  ?  Ce
Ce1  1.0  0.4334409776853614  0.28447133212218795  0.5003324019013746  Uiso  ?  Ce
Ce1  1.0  0.4359599636671052  0.28376113526628816  0.43995817127077275  Uiso  ?  Ce
Ce1  1.0  0.45196874928543107  0.3344281365971682  0.47056534734169164  Uiso  ?  Ce
O1  1.0  0.45132555880614944  0.2973329339896488  0.4717721423172773  Uiso  ?  O
O1  1.0  0.4347527281571731  0.3206166919685845  0.44063882070421084  Uiso  ?  O
O1  1.0  0.43202072716055234  0.32113113573611163  0.5008689222020662  Uiso  ?  O
O1  1.0  0.4172766451775  0.2728933195692401  0.47082908512477234  Uiso  ?  O
O1  1.0  0.398781832198278  0.2950379227206703  0.4398512527656182  Uiso  ?  O
O1  1.0  0.4005475453241549  0.2945135743219115  0.5019489988018319  Uiso  ?  O
O1  1.0  0.3815237771921611  0.3192920573154248  0.46904288171638875  Uiso  ?  O
Ce1  1.0  0.4525707297682683  0.33433680783772596  0.5315306691671889  Uiso  ?  Ce
Ce1  1.0  0.3988795547270349  0.33411648722109627  0.5639362105067806  Uiso  ?  Ce
Ce1  1.0  0.400841658959867  0.3347036831153752  0.4983371646986368  Uiso  ?  Ce
O1  1.0  0.37809967624791374  0.321076463091995  0.5324627183054406  Uiso  ?  O
Ce1  1.0  0.3794442140594889  0.2849453855363319  0.4716632945508084  Uiso  ?  Ce
O1  1.0  0.365538368292514  0.27365499227946244  0.43857800677819964  Uiso  ?  O
O1  1.0  0.36159711679187856  0.2703319149155778  0.49997786643485226  Uiso  ?  O
O1  1.0  0.3470083339150412  0.29523642277784085  0.46838716376947165  Uiso  ?  O
O1  1.0  0.3118941531316198  0.2707056567092572  0.4694825873687207  Uiso  ?  O
Ce1  1.0  0.38088917577064824  0.2837579216243643  0.5303902153127952  Uiso  ?  Ce
Ce1  1.0  0.32812672836547674  0.2860923970513688  0.560176400486204  Uiso  ?  Ce
Ce1  1.0  0.32917836789568256  0.2856088559545786  0.4993041834410516  Uiso  ?  Ce
Ce1  1.0  0.3449461136856639  0.32952873433828517  0.5347721377153926  Uiso  ?  Ce
O1  1.0  0.3435367156144186  0.2952783619004045  0.5309943437824964  Uiso  ?  O
O1  1.0  0.3258900060164035  0.31990339579092036  0.498894551031098  Uiso  ?  O
O1  1.0  0.3250256988772272  0.3222199845088984  0.5622939720804223  Uiso  ?  O
O1  1.0  0.30810303961776186  0.27250536147214177  0.5308311007121077  Uiso  ?  O
O1  1.0  0.2911688789700109  0.29615430654867914  0.5036251121542787  Uiso  ?  O
O1  1.0  0.2940712232538588  0.2957959902434285  0.5649735146783768  Uiso  ?  O
O1  1.0  0.27332844084965996  0.3219973919160387  0.5314378859402014  Uiso  ?  O
Ce1  1.0  0.34775647207532634  0.3357872350987263  0.59437013646458  Uiso  ?  Ce
Ce1  1.0  0.2950897285160842  0.3340438478842389  0.6258219018448637  Uiso  ?  Ce
Ce1  1.0  0.2922221407402733  0.3347599991078923  0.562299097102506  Uiso  ?  Ce
O1  1.0  0.27620188647923366  0.3199226855735532  0.5942124437649347  Uiso  ?  O
Ce1  1.0  0.2770047446231731  0.28411149603022273  0.531367417693825  Uiso  ?  Ce
O1  1.0  0.25834820021014987  0.27180889146344145  0.5018449878003934  Uiso  ?  O
O1  1.0  0.25668658092076535  0.2704001744093691  0.5621665262142563  Uiso  ?  O
O1  1.0  0.24144363941780264  0.29487252540603326  0.531234390812471  Uiso  ?  O
O1  1.0  0.2081685654792831  0.27128930705838605  0.5314319362618746  Uiso  ?  O
Ce1  1.0  0.275627489893846  0.2868613738312503  0.59019144441956  Uiso  ?  Ce
Ce1  1.0  0.22054733754315312  0.2834577026890921  0.6251824108671858  Uiso  ?  Ce
Ce1  1.0  0.22113298827065803  0.2858103229783124  0.5635147002877541  Uiso  ?  Ce
Ce1  1.0  0.2390506568646778  0.3340659335524464  0.5917785793080982  Uiso  ?  Ce
O1  1.0  0.2377173576827448  0.29762702826399984  0.5921974559995284  Uiso  ?  O
O1  1.0  0.21981649432250272  0.3214528328966366  0.558469193284552  Uiso  ?  O
O1  1.0  0.22083352342737356  0.32180517475693693  0.6233823924067886  Uiso  ?  O
O1  1.0  0.20175304472444536  0.27046395541354157  0.5928434869547455  Uiso  ?  O
O1  1.0  0.18867432445847312  0.298363379445876  0.5619636914895937  Uiso  ?  O
O1  1.0  0.1859917758449788  0.2979298518486498  0.6222700331447212  Uiso  ?  O
O1  1.0  0.17053529075186658  0.3207795963802799  0.595571762718246  Uiso  ?  O
Ce1  1.0  0.1685735180548464  0.28341350824287503  0.591303712523774  Uiso  ?  Ce
Ce1  1.0  0.16628677063686575  0.28341488856400415  0.6525836932428439  Uiso  ?  Ce
O1  1.0  0.7893654653813188  0.272860201157691  0.13354967967750894  Uiso  ?  O
Ce1  1.0  0.808935799826862  0.28623174050841416  0.16749964282484997  Uiso  ?  Ce
Ce1  1.0  0.7542160118349761  0.2841425866768497  0.1972343754226335  Uiso  ?  Ce
Ce1  1.0  0.7537006193548554  0.2852571482985774  0.13443858763285862  Uiso  ?  Ce
O1  1.0  0.771738944567672  0.29703272059336977  0.16444982043678638  Uiso  ?  O
O1  1.0  0.7551137722912123  0.319953203716453  0.1940887426850047  Uiso  ?  O
O1  1.0  0.734602006378479  0.2716992835199969  0.1674471449150798  Uiso  ?  O
O1  1.0  0.7182798563046511  0.29850268702599614  0.13201320267213645  Uiso  ?  O
O1  1.0  0.7168884676060602  0.29757869950001137  0.19621619168408094  Uiso  ?  O
O1  1.0  0.7023273720817451  0.31936349472757175  0.16658979706160038  Uiso  ?  O
Ce1  1.0  0.7183078225852646  0.33691548302257973  0.2567168912238658  Uiso  ?  Ce
Ce1  1.0  0.7188373998968122  0.3336766873015808  0.1968737997029648  Uiso  ?  Ce
O1  1.0  0.7019270831285508  0.3242744940547342  0.22522511340809273  Uiso  ?  O
Ce1  1.0  0.7027469997367539  0.28536229786542044  0.16528078398158122  Uiso  ?  Ce
O1  1.0  0.6837100398224218  0.2704839323734204  0.13705786346752027  Uiso  ?  O
O1  1.0  0.6811724395639501  0.274786039082939  0.19537854741729413  Uiso  ?  O
O1  1.0  0.6632405180746292  0.2969678579073559  0.16446987049330072  Uiso  ?  O
O1  1.0  0.6296042478263749  0.27217463158918814  0.16436383790952488  Uiso  ?  O
Ce1  1.0  0.7030125087270613  0.2836756422739652  0.2242892925391375  Uiso  ?  Ce
Ce1  1.0  0.6478007017889693  0.28539267051261885  0.25583006295558736  Uiso  ?  Ce
Ce1  1.0  0.6484387589017736  0.2860078251335717  0.19409323593215574  Uiso  ?  Ce
Ce1  1.0  0.6647296578820794  0.3343087399129652  0.2226408192534554  Uiso  ?  Ce
O1  1.0  0.6663351758127422  0.2963910605094101  0.22620340149306536  Uiso  ?  O
O1  1.0  0.6476708753337498  0.32144080193947855  0.19302183886400656  Uiso  ?  O
O1  1.0  0.6496174563292784  0.3185728628603083  0.25889982912348686  Uiso  ?  O
O1  1.0  0.6327269658254282  0.27167158089844406  0.22503568528737  Uiso  ?  O
O1  1.0  0.6149626326313254  0.2982837947777302  0.19560038826381634  Uiso  ?  O
O1  1.0  0.6136137034595819  0.29554355330862137  0.2555095134989097  Uiso  ?  O
O1  1.0  0.5985331263789213  0.32155912241007384  0.22776419747445856  Uiso  ?  O
Ce1  1.0  0.6654480586896283  0.33397960837294743  0.2913494407956862  Uiso  ?  Ce
Ce1  1.0  0.6162435210998652  0.33517646170176596  0.31644653725078675  Uiso  ?  Ce
Ce1  1.0  0.6128912118794998  0.3361233797090142  0.25517124189639623  Uiso  ?  Ce
O1  1.0  0.5937341936559544  0.3234986855072906  0.28605735936878457  Uiso  ?  O
Ce1  1.0  0.5919759339442952  0.2833398475367052  0.22431678202973634  Uiso  ?  Ce
O1  1.0  0.5799686281551434  0.272160353128925  0.19377295077508172  Uiso  ?  O
O1  1.0  0.5761242296285337  0.2730437507528562  0.2551888415917998  Uiso  ?  O
O1  1.0  0.5599031528879186  0.29557423262250543  0.22345794895163348  Uiso  ?  O
O1  1.0  0.5237019983152834  0.2736799898652348  0.2253384288906389  Uiso  ?  O
Ce1  1.0  0.5938070221366544  0.2841323462911206  0.28904812850376116  Uiso  ?  Ce
Ce1  1.0  0.5413702864014719  0.28275085012341955  0.31924259947376576  Uiso  ?  Ce
Ce1  1.0  0.5421009990051516  0.28215009359259297  0.2576262687608904  Uiso  ?  Ce
Ce1  1.0  0.5619446830831373  0.3371894628236986  0.2888596802339157  Uiso  ?  Ce
O1  1.0  0.5570291594877294  0.2962868024263094  0.28658356175854993  Uiso  ?  O
O1  1.0  0.5385370618301792  0.3220652349726623  0.254958013898471  Uiso  ?  O
O1  1.0  0.542680317808551  0.3199369972210847  0.31891431306050966  Uiso  ?  O
O1  1.0  0.5243977778889052  0.27243801050248495  0.28542343710507445  Uiso  ?  O
O1  1.0  0.5065661230049123  0.2941971341980478  0.2558883106549218  Uiso  ?  O
O1  1.0  0.5059238310255583  0.3002661597811849  0.3145350615956216  Uiso  ?  O
O1  1.0  0.48983806394207896  0.3234363258399257  0.28436850911262695  Uiso  ?  O
Ce1  1.0  0.5602808946431949  0.33603312577278865  0.3490893634070185  Uiso  ?  Ce
Ce1  1.0  0.5054396778528408  0.3320128510924295  0.37783596663812447  Uiso  ?  Ce
Ce1  1.0  0.5044430100388972  0.3341086050923924  0.3164392414724148  Uiso  ?  Ce
O1  1.0  0.4888736499495967  0.3224616829472886  0.34953616054373166  Uiso  ?  O
Ce1  1.0  0.48668728341933476  0.28522922697056824  0.2864108495048776  Uiso  ?  Ce
O1  1.0  0.4699416589224915  0.27163197943761047  0.25665028397654416  Uiso  ?  O
O1  1.0  0.4716767654117242  0.270381753544999  0.31807026007634726  Uiso  ?  O
O1  1.0  0.45698828201380043  0.2980844758727658  0.2887334647602124  Uiso  ?  O
O1  1.0  0.4193411567867593  0.272509435815036  0.28800258954092267  Uiso  ?  O
Ce1  1.0  0.48864569174712913  0.2838076551324017  0.3497455998486858  Uiso  ?  Ce
Ce1  1.0  0.4333253316114685  0.2840096374846648  0.38086398162069734  Uiso  ?  Ce
Ce1  1.0  0.43524146428256977  0.28392850542548775  0.31534776948774873  Uiso  ?  Ce
Ce1  1.0  0.4541560430056602  0.33234302603057797  0.3476303317080948  Uiso  ?  Ce
O1  1.0  0.4513192607303611  0.297575379365829  0.34903408445969875  Uiso  ?  O
O1  1.0  0.43674410590283885  0.32149307287559253  0.3164529587158298  Uiso  ?  O
O1  1.0  0.43227297834230916  0.3213868485228803  0.3756391230398564  Uiso  ?  O
O1  1.0  0.4182204322510004  0.2690965906372415  0.34685579988608695  Uiso  ?  O
O1  1.0  0.3980584624823552  0.29705613331913006  0.31708664963287597  Uiso  ?  O
O1  1.0  0.3978633188693485  0.2946061868990135  0.3789695486560493  Uiso  ?  O
O1  1.0  0.38083045957822603  0.3238292438450959  0.34779968042545645  Uiso  ?  O
Ce1  1.0  0.45246434167580635  0.3355552172657252  0.4097691330226128  Uiso  ?  Ce
Ce1  1.0  0.40110058009340094  0.333803865339884  0.4428654443015085  Uiso  ?  Ce
Ce1  1.0  0.4022395969086411  0.33450218058465686  0.37715845336228865  Uiso  ?  Ce
O1  1.0  0.38410635052198094  0.32101817968488044  0.407946631344081  Uiso  ?  O
Ce1  1.0  0.3778838308991078  0.2816490810405277  0.34660861187442693  Uiso  ?  Ce
O1  1.0  0.3650351721971226  0.2701762291362725  0.31663923744156686  Uiso  ?  O
O1  1.0  0.3669229487197695  0.2740091444576124  0.3769170535408453  Uiso  ?  O
O1  1.0  0.34844817323993554  0.2977071960204141  0.3468043902584327  Uiso  ?  O
O1  1.0  0.30824107076928187  0.27152209339537076  0.3477180921733201  Uiso  ?  O
Ce1  1.0  0.38438901638197065  0.2830640374151925  0.4094180924215613  Uiso  ?  Ce
Ce1  1.0  0.3245108437299787  0.2822816051198149  0.43626605298074134  Uiso  ?  Ce
Ce1  1.0  0.3286106032662299  0.28459028755822374  0.37729049742639315  Uiso  ?  Ce
Ce1  1.0  0.3472428698898585  0.3356971073607053  0.40961634770117356  Uiso  ?  Ce
O1  1.0  0.34540972885058385  0.29701466139111693  0.40678676063847297  Uiso  ?  O
O1  1.0  0.3303146935710194  0.32198015932165314  0.37673373054293396  Uiso  ?  O
O1  1.0  0.33075891188864953  0.3222493579040055  0.44221446115360374  Uiso  ?  O
O1  1.0  0.31187433964554373  0.2709891672121344  0.40627140747521223  Uiso  ?  O
O1  1.0  0.289941419628943  0.29495050279986573  0.37646150307010656  Uiso  ?  O
O1  1.0  0.29292841237360867  0.2962389719122104  0.44139605852477604  Uiso  ?  O
O1  1.0  0.27522563361343794  0.32152730173063343  0.41055352681541946  Uiso  ?  O
Ce1  1.0  0.34423887171754564  0.33139494533283426  0.4706991932657251  Uiso  ?  Ce
Ce1  1.0  0.294290252063647  0.3345146781123343  0.5025493116260986  Uiso  ?  Ce
Ce1  1.0  0.29525405833236307  0.33334614835890236  0.4401766493819939  Uiso  ?  Ce
O1  1.0  0.27318890089924175  0.31953545242209536  0.466738028865422  Uiso  ?  O
Ce1  1.0  0.2767604821602998  0.28506968133255595  0.4086039291006391  Uiso  ?  Ce
O1  1.0  0.25478266907229435  0.2723059001592291  0.37790000317593714  Uiso  ?  O
O1  1.0  0.2582383659636975  0.2725861123161431  0.4393624104083519  Uiso  ?  O
O1  1.0  0.24228260983565225  0.29671136754562205  0.4077087147612636  Uiso  ?  O
O1  1.0  0.2038244971826664  0.27120752509447216  0.40728156502372476  Uiso  ?  O
Ce1  1.0  0.27477189720426537  0.2840410409073987  0.4730960404094579  Uiso  ?  Ce
Ce1  1.0  0.2215213972357777  0.28414913570801853  0.5029328540897006  Uiso  ?  Ce
Ce1  1.0  0.22036806414552382  0.2845496920001877  0.43655553927422636  Uiso  ?  Ce
Ce1  1.0  0.23933057451987802  0.3341219930983633  0.4704681908763905  Uiso  ?  Ce
O1  1.0  0.24135342848233984  0.2973725696832049  0.46886694458549283  Uiso  ?  O
O1  1.0  0.22469137681807164  0.3207574014824327  0.4369850900712314  Uiso  ?  O
O1  1.0  0.22070066526160648  0.3196406720112726  0.4975388827692806  Uiso  ?  O
O1  1.0  0.20465966320117865  0.27311370571244986  0.46840807825690634  Uiso  ?  O
O1  1.0  0.1838833726315553  0.2983362626309236  0.4409949655788589  Uiso  ?  O
O1  1.0  0.1841637191515823  0.2968805732407991  0.497143999110952  Uiso  ?  O
O1  1.0  0.16841685411394444  0.32317835142320694  0.4705516121328422  Uiso  ?  O
Ce1  1.0  0.23796250138969852  0.3365433307679733  0.5302038740081462  Uiso  ?  Ce
Ce1  1.0  0.18685331172801686  0.3334586486858734  0.558811780518239  Uiso  ?  Ce
Ce1  1.0  0.18554749895441866  0.33580864295177676  0.49696343533107257  Uiso  ?  Ce
O1  1.0  0.17148778506116646  0.32052051620295535  0.5327086386674661  Uiso  ?  O
Ce1  1.0  0.16885713955259973  0.28220633677387275  0.4702716731471555  Uiso  ?  Ce
Ce1  1.0  0.16573388747050033  0.28538285316303247  0.5315087686491842  Uiso  ?  Ce
Ce1  1.0  0.6504079412149929  0.28417775087029873  0.13306414953946594  Uiso  ?  Ce
O1  1.0  0.6485319237639838  0.32055173682958393  0.13143046318057297  Uiso  ?  O
O1  1.0  0.6142901601876092  0.29662879191885183  0.1381256242680557  Uiso  ?  O
Ce1  1.0  0.6671643177590791  0.3345657201589086  0.16454047440241773  Uiso  ?  Ce
Ce1  1.0  0.6129357457605089  0.3381220316914977  0.19475127366936  Uiso  ?  Ce
Ce1  1.0  0.6143727398828762  0.3365595234119296  0.13354021474001365  Uiso  ?  Ce
O1  1.0  0.5951190028682163  0.3226883942679171  0.16457489653316895  Uiso  ?  O
O1  1.0  0.576513295160923  0.2710661654015626  0.13225998888912083  Uiso  ?  O
Ce1  1.0  0.5971517086044013  0.284827694131923  0.160784458638196  Uiso  ?  Ce
Ce1  1.0  0.5428205062216276  0.2850177415709825  0.1958764759573989  Uiso  ?  Ce
Ce1  1.0  0.5432323175919848  0.2859694159997054  0.13179071809617612  Uiso  ?  Ce
Ce1  1.0  0.5589486219978317  0.3316737467493322  0.16465981956771225  Uiso  ?  Ce
O1  1.0  0.5611009846115742  0.29574789233501575  0.16544187215468642  Uiso  ?  O
O1  1.0  0.5398987326352228  0.32006233301232007  0.13317290250465438  Uiso  ?  O
O1  1.0  0.5409781701692952  0.32275432332807086  0.19872442624620423  Uiso  ?  O
O1  1.0  0.5256441531796849  0.2732486115001183  0.16723189211931583  Uiso  ?  O
O1  1.0  0.5045951110265446  0.29757868494980605  0.13328202874188577  Uiso  ?  O
O1  1.0  0.507706853652711  0.2982082183558413  0.1970343909328769  Uiso  ?  O
O1  1.0  0.48775884167951344  0.3233963465173839  0.16327512310681241  Uiso  ?  O
Ce1  1.0  0.5563809556019023  0.33488300102347096  0.224374219156502  Uiso  ?  Ce
Ce1  1.0  0.5060183645041372  0.33700299223661906  0.2564124838895463  Uiso  ?  Ce
Ce1  1.0  0.5087820641056131  0.3322420472274213  0.19475414361678436  Uiso  ?  Ce
O1  1.0  0.48887547409865123  0.32036599650121733  0.22463088844943152  Uiso  ?  O
Ce1  1.0  0.4879977823910138  0.28531814122028404  0.161867128846422  Uiso  ?  Ce
O1  1.0  0.4693136761834411  0.2729104782745727  0.1334729242165411  Uiso  ?  O
O1  1.0  0.46963628775008387  0.2722707878296591  0.19537348126947887  Uiso  ?  O
O1  1.0  0.4548408296100555  0.29550366420121127  0.16207359773197622  Uiso  ?  O
O1  1.0  0.4187398213145109  0.2723067963760941  0.16614492329999164  Uiso  ?  O
Ce1  1.0  0.4913114523670406  0.28293978476415726  0.22501851263884493  Uiso  ?  Ce
Ce1  1.0  0.435179828412826  0.2847439180902863  0.25608661897908785  Uiso  ?  Ce
Ce1  1.0  0.4358392500032987  0.2840963150012337  0.19433711179189894  Uiso  ?  Ce
Ce1  1.0  0.45345587823185435  0.33503848199182623  0.22384116091180617  Uiso  ?  Ce
O1  1.0  0.45108791897078593  0.29824171498718527  0.22462212918640168  Uiso  ?  O
O1  1.0  0.4345519413703799  0.320770870236361  0.19318212494328887  Uiso  ?  O
O1  1.0  0.4326414180748562  0.3227208399835057  0.25758533541891704  Uiso  ?  O
O1  1.0  0.41907208127304846  0.2727351993752574  0.22357629715222063  Uiso  ?  O
O1  1.0  0.40112521978991805  0.2955497097701013  0.193573049501642  Uiso  ?  O
O1  1.0  0.3984913733448921  0.2968290432718239  0.2554155584473435  Uiso  ?  O
O1  1.0  0.3804354645412828  0.32372660348256616  0.22488536233244677  Uiso  ?  O
Ce1  1.0  0.45613045477886544  0.33203829290124826  0.2877030330431199  Uiso  ?  Ce
Ce1  1.0  0.39887150950094985  0.33478686154999426  0.3163269000990931  Uiso  ?  Ce
Ce1  1.0  0.39765361472744537  0.3323394194131426  0.2541560826685561  Uiso  ?  Ce
O1  1.0  0.37895640105906736  0.32092061521117254  0.2853381088046064  Uiso  ?  O
Ce1  1.0  0.38236425739354984  0.28549910047104954  0.22324864920996965  Uiso  ?  Ce
O1  1.0  0.3662375938763408  0.27015284447785165  0.19530521943245335  Uiso  ?  O
O1  1.0  0.3674093433255391  0.2697971162044736  0.25565555157285047  Uiso  ?  O
O1  1.0  0.3478828625241248  0.29571677491026155  0.22637563519420725  Uiso  ?  O
O1  1.0  0.3095826346113812  0.27129356132721255  0.22628263376934207  Uiso  ?  O
Ce1  1.0  0.3832268711825828  0.28501944561257897  0.2880816887769806  Uiso  ?  Ce
Ce1  1.0  0.32946738558146477  0.28425106234163383  0.31830397216621753  Uiso  ?  Ce
Ce1  1.0  0.32979573865057776  0.2822046261519787  0.2578892754381979  Uiso  ?  Ce
Ce1  1.0  0.34539536490619005  0.33310050533334973  0.28738779939943  Uiso  ?  Ce
O1  1.0  0.34783529922419143  0.29843040459754405  0.28339825650708556  Uiso  ?  O
O1  1.0  0.3288113152630685  0.3199171006466843  0.2576735119112679  Uiso  ?  O
O1  1.0  0.3278666252466016  0.32244620683157516  0.31733154224095633  Uiso  ?  O
O1  1.0  0.31367029115008105  0.27280322087983033  0.2866478627830544  Uiso  ?  O
O1  1.0  0.29255219087955336  0.2962866437455794  0.25647763537391804  Uiso  ?  O
O1  1.0  0.29373564776523037  0.2971279844577127  0.31447721973493376  Uiso  ?  O
O1  1.0  0.2728854637546885  0.32116620222505643  0.2866216645162303  Uiso  ?  O
Ce1  1.0  0.3489967088192345  0.33614805425287375  0.34700376964668306  Uiso  ?  Ce
Ce1  1.0  0.294364666669555  0.3341322266286818  0.37777882986224376  Uiso  ?  Ce
Ce1  1.0  0.2919556495780612  0.3369931221958054  0.31948190775813373  Uiso  ?  Ce
O1  1.0  0.27818098447123213  0.32160869479636023  0.3475277917808054  Uiso  ?  O
Ce1  1.0  0.2744994381714075  0.2821843859141451  0.2859201697057816  Uiso  ?  Ce
O1  1.0  0.2594482018246664  0.2697859442897183  0.25557226496740787  Uiso  ?  O
O1  1.0  0.2601533108684533  0.2728854008060099  0.31764535849840736  Uiso  ?  O
O1  1.0  0.24021237965815012  0.2981812167171031  0.28582995446528947  Uiso  ?  O
O1  1.0  0.20650690631377783  0.2720688459840845  0.2883403168365197  Uiso  ?  O
Ce1  1.0  0.27585750491604166  0.2830702701309735  0.3444793946257288  Uiso  ?  Ce
Ce1  1.0  0.22290842554840928  0.2829203808163841  0.3774337670915177  Uiso  ?  Ce
Ce1  1.0  0.22036393496778767  0.2848815546066071  0.3176087924079491  Uiso  ?  Ce
Ce1  1.0  0.2398620013056179  0.33332411084727565  0.34689037047334675  Uiso  ?  Ce
O1  1.0  0.23783551825540783  0.29877735768131425  0.3471382315699768  Uiso  ?  O
O1  1.0  0.22229322051880504  0.32350950873848827  0.31401227083789673  Uiso  ?  O
O1  1.0  0.223243567110076  0.3217900081547315  0.37959029946090483  Uiso  ?  O
O1  1.0  0.20671540870391658  0.2724306093657588  0.34663350698475165  Uiso  ?  O
O1  1.0  0.18937635500097832  0.29620759496519655  0.3149152199486658  Uiso  ?  O
O1  1.0  0.1872023892181478  0.2958133662415375  0.379185883885032  Uiso  ?  O
O1  1.0  0.17036821527012594  0.32171309249209185  0.34900917957690347  Uiso  ?  O
Ce1  1.0  0.23964291767489035  0.33315479704610973  0.40688817664032173  Uiso  ?  Ce
Ce1  1.0  0.18324932696404392  0.33481206793218243  0.4394323885437631  Uiso  ?  Ce
Ce1  1.0  0.1857821613641176  0.33090316318540614  0.38031379383263747  Uiso  ?  Ce
O1  1.0  0.17044444524473265  0.321171655998856  0.40912839604883083  Uiso  ?  O
Ce1  1.0  0.16895544440479326  0.2831086974398473  0.3442814233901658  Uiso  ?  Ce
Ce1  1.0  0.17062608119104766  0.28501922004716546  0.41091325155435915  Uiso  ?  Ce
Ce1  1.0  0.5068267035823024  0.33353272786536087  0.13524472377299412  Uiso  ?  Ce
Ce1  1.0  0.4383608646397852  0.28419954593916924  0.13275429964985694  Uiso  ?  Ce
O1  1.0  0.43662475481325824  0.32091079890798485  0.13467595847391875  Uiso  ?  O
O1  1.0  0.4033898732130405  0.2977711047300727  0.1316852379907693  Uiso  ?  O
Ce1  1.0  0.45289433240895477  0.33688854529680556  0.1625995541939492  Uiso  ?  Ce
Ce1  1.0  0.3994785269045242  0.33362464338589726  0.1970506749734598  Uiso  ?  Ce
Ce1  1.0  0.4016409853233379  0.3348558929410272  0.13186725184882342  Uiso  ?  Ce
O1  1.0  0.38182170791180253  0.32006567655394097  0.16272489564526255  Uiso  ?  O
O1  1.0  0.3655234684335956  0.2726197146485943  0.12970239978003767  Uiso  ?  O
Ce1  1.0  0.3830802616588265  0.2855062051023362  0.16071527323591744  Uiso  ?  Ce
Ce1  1.0  0.3306987331085796  0.2842050762217019  0.1946807268665757  Uiso  ?  Ce
Ce1  1.0  0.32726682675606694  0.2825041432035613  0.13074244321165313  Uiso  ?  Ce
Ce1  1.0  0.3455850698197533  0.3344635189297429  0.16449692082637762  Uiso  ?  Ce
O1  1.0  0.34762258964769244  0.2934951534869211  0.16164015051279856  Uiso  ?  O
O1  1.0  0.33123089690316204  0.3223629201497286  0.1387799694378863  Uiso  ?  O
O1  1.0  0.3338458025144736  0.3230643275865432  0.1935182480495761  Uiso  ?  O
O1  1.0  0.31044691127991236  0.2731095479676212  0.1635866984255464  Uiso  ?  O
O1  1.0  0.2946627176046024  0.297095020405808  0.13555071220544138  Uiso  ?  O
O1  1.0  0.2969789489558003  0.2969711786032831  0.19436019939756427  Uiso  ?  O
O1  1.0  0.2744944057338807  0.3233995955858353  0.16239816448474012  Uiso  ?  O
Ce1  1.0  0.34818996219582143  0.33323034535453694  0.22424067232959732  Uiso  ?  Ce
Ce1  1.0  0.29133305453097463  0.33337064416146495  0.25662214507122133  Uiso  ?  Ce
Ce1  1.0  0.29409030138059433  0.33268355750514866  0.193392828200048  Uiso  ?  Ce
O1  1.0  0.2790886584726714  0.3238184704306567  0.22489529598924465  Uiso  ?  O
Ce1  1.0  0.27831356691117104  0.2818533952061249  0.16335634258026077  Uiso  ?  Ce
O1  1.0  0.2551260232948325  0.27072513002997983  0.13053953472171861  Uiso  ?  O
O1  1.0  0.25770238076935914  0.271348121920762  0.19001502413421129  Uiso  ?  O
O1  1.0  0.24220067058600828  0.29716413856937707  0.16081596151534872  Uiso  ?  O
O1  1.0  0.20730144782347365  0.2735630830050936  0.16398834019743766  Uiso  ?  O
Ce1  1.0  0.2754721868679767  0.2831100112984895  0.22485795646955614  Uiso  ?  Ce
Ce1  1.0  0.22392254307119816  0.2850109280020595  0.2577059403910435  Uiso  ?  Ce
Ce1  1.0  0.22430801362073446  0.28542976015451804  0.19422948458127576  Uiso  ?  Ce
Ce1  1.0  0.24028313727589856  0.3327613838727708  0.22455571287638915  Uiso  ?  Ce
O1  1.0  0.23880183915274752  0.2991262297856682  0.22193560184890265  Uiso  ?  O
O1  1.0  0.2244974826387598  0.3204976292393254  0.19497228431139518  Uiso  ?  O
O1  1.0  0.2200866650771973  0.32133894653972833  0.2536712637085353  Uiso  ?  O
O1  1.0  0.20548330216117813  0.27122102418562327  0.22229356605462486  Uiso  ?  O
O1  1.0  0.1877016311224368  0.2967289065825359  0.19461309785429307  Uiso  ?  O
O1  1.0  0.18650703157728835  0.2965062581173965  0.2546005015948047  Uiso  ?  O
O1  1.0  0.16788924341016837  0.32104218294380416  0.22595229656220395  Uiso  ?  O
Ce1  1.0  0.2422994413481823  0.3368830568859464  0.285456596561138  Uiso  ?  Ce
Ce1  1.0  0.1874054455360003  0.3328544975445306  0.31688869384393664  Uiso  ?  Ce
Ce1  1.0  0.1881203483457039  0.3360771991822765  0.25701675387748363  Uiso  ?  Ce
O1  1.0  0.1700208593425634  0.3212157914348258  0.28333159822154064  Uiso  ?  O
Ce1  1.0  0.1671774089140975  0.286238526991314  0.22435545813003216  Uiso  ?  Ce
Ce1  1.0  0.17089162380569106  0.283623478137682  0.28621466159200903  Uiso  ?  Ce
Ce1  1.0  0.29416135422904244  0.33514073875415495  0.13087858368221061  Uiso  ?  Ce
Ce1  1.0  0.22472196663821015  0.2862981684221142  0.12988151809666876  Uiso  ?  Ce
O1  1.0  0.22243353294550103  0.3207185380401706  0.13060687968423507  Uiso  ?  O
O1  1.0  0.1855298589152675  0.2975302666884069  0.13457605712398632  Uiso  ?  O
Ce1  1.0  0.24138618507230714  0.3346518395835879  0.16364290943916793  Uiso  ?  Ce
Ce1  1.0  0.1884296615017277  0.3298792277109811  0.1934825596151209  Uiso  ?  Ce
Ce1  1.0  0.18756679802376702  0.3346606065184081  0.12984805499827645  Uiso  ?  Ce
O1  1.0  0.17154886769347713  0.3244139320785711  0.16583289555628078  Uiso  ?  O
Ce1  1.0  0.16944324554804988  0.28585850527463613  0.1599180990733617  Uiso  ?  Ce
O1  1.0  0.8063982383018325  0.1728410731625091  0.8421911182235854  Uiso  ?  O
Ce1  1.0  0.8197915641659909  0.18556367006819088  0.8725589473146746  Uiso  ?  Ce
O1  1.0  0.822456728066107  0.22241499248261232  0.8707317948852187  Uiso  ?  O
O1  1.0  0.7857139995943214  0.19502967131881208  0.8705834389154377  Uiso  ?  O
O1  1.0  0.752224069938576  0.17097100414849203  0.8721818036884782  Uiso  ?  O
O1  1.0  0.83900226976792  0.1955445313593432  0.7195006164486438  Uiso  ?  O
O1  1.0  0.8055717522527934  0.16974438156944602  0.7176055410871296  Uiso  ?  O
Ce1  1.0  0.8212536055068942  0.18653997818687784  0.8062665549683835  Uiso  ?  Ce
Ce1  1.0  0.8220795472143982  0.18221038090641656  0.7497601899410462  Uiso  ?  Ce
O1  1.0  0.8235398141270179  0.22324280195629811  0.7475626690409816  Uiso  ?  O
O1  1.0  0.8222144955599613  0.2236074879193141  0.8081757795574223  Uiso  ?  O
O1  1.0  0.8066168374948741  0.24483843141097836  0.7744938281280268  Uiso  ?  O
O1  1.0  0.8053127721179769  0.16929832873903936  0.7787139958484508  Uiso  ?  O
O1  1.0  0.7881798819855392  0.19758272749935454  0.7452046705264659  Uiso  ?  O
O1  1.0  0.7866902268538499  0.19593653516292672  0.8107000851358898  Uiso  ?  O
O1  1.0  0.7707952071778864  0.22161194389478495  0.7775011315502499  Uiso  ?  O
Ce1  1.0  0.7871493499676755  0.2345339847220269  0.8741356237487604  Uiso  ?  Ce
Ce1  1.0  0.7868121768257903  0.23326738689513274  0.8074156972359967  Uiso  ?  Ce
O1  1.0  0.8073409616705779  0.24839121714737547  0.8361720610192667  Uiso  ?  O
O1  1.0  0.7665292304093041  0.22006002317777593  0.8374594698754934  Uiso  ?  O
O1  1.0  0.7525180172858881  0.24599224506890097  0.8109746814056592  Uiso  ?  O
O1  1.0  0.7506713564177325  0.24729490304832755  0.869348380853547  Uiso  ?  O
Ce1  1.0  0.7706888718752045  0.1851315920200377  0.7776407539689768  Uiso  ?  Ce
O1  1.0  0.7500649850446627  0.1696380851607217  0.7469241281652299  Uiso  ?  O
O1  1.0  0.750508501184406  0.17106407474849789  0.8107831136858566  Uiso  ?  O
O1  1.0  0.7344287440783835  0.19258891884577967  0.7797063154292355  Uiso  ?  O
O1  1.0  0.6979705532811445  0.17319026069030896  0.7769071089523247  Uiso  ?  O
Ce1  1.0  0.7686798841436285  0.18501416911988547  0.8394464310461455  Uiso  ?  Ce
Ce1  1.0  0.7169950434075282  0.1846946337664641  0.8699111609360969  Uiso  ?  Ce
Ce1  1.0  0.7156126439196198  0.1838820965090071  0.808293247298327  Uiso  ?  Ce
Ce1  1.0  0.7347920555522394  0.23374708409950584  0.8393528695132569  Uiso  ?  Ce
O1  1.0  0.7317631613811671  0.19922767973239056  0.8386060777698333  Uiso  ?  O
O1  1.0  0.7154556879076973  0.2192396859647879  0.807308654285012  Uiso  ?  O
O1  1.0  0.7156005807906461  0.22369824855256987  0.870102055587205  Uiso  ?  O
O1  1.0  0.6981570598201614  0.24889157581313892  0.8408883317525983  Uiso  ?  O
O1  1.0  0.699200752444219  0.17070499940367925  0.8389482333355558  Uiso  ?  O
O1  1.0  0.6841627573263488  0.19559788540922574  0.8084513097411611  Uiso  ?  O
O1  1.0  0.6811317970997726  0.19702990532861547  0.8692112714554581  Uiso  ?  O
O1  1.0  0.6635830861832452  0.22123882330916828  0.8395221299769444  Uiso  ?  O
Ce1  1.0  0.6809185598990178  0.23509584712944306  0.8680236935850684  Uiso  ?  Ce
O1  1.0  0.660016519061101  0.22195800058190188  0.9007938565979215  Uiso  ?  O
O1  1.0  0.6452232112523214  0.24577544798702272  0.8690475534225001  Uiso  ?  O
Ce1  1.0  0.6617035929769873  0.1856629793871027  0.8407402814835028  Uiso  ?  Ce
O1  1.0  0.6459049471315356  0.1704784538983889  0.8082673308802122  Uiso  ?  O
O1  1.0  0.6437218399361959  0.17021640864001256  0.8677398188179745  Uiso  ?  O
O1  1.0  0.6268283380915477  0.19667104107904748  0.842716403058723  Uiso  ?  O
O1  1.0  0.5911222801944158  0.16994796728297462  0.837507389920525  Uiso  ?  O
Ce1  1.0  0.664180798414088  0.18575849693079183  0.9005946943659467  Uiso  ?  Ce
Ce1  1.0  0.6109626495678088  0.18583852370673948  0.8671866840174018  Uiso  ?  Ce
Ce1  1.0  0.6255722236092354  0.2322147284916013  0.9020174192578707  Uiso  ?  Ce
O1  1.0  0.6280122816210435  0.19654812239635888  0.8968879269820853  Uiso  ?  O
O1  1.0  0.6056135862988319  0.22093553258016865  0.8696823822593325  Uiso  ?  O
O1  1.0  0.5926593467830384  0.24664970248215562  0.9005789605193885  Uiso  ?  O
O1  1.0  0.5914948551760961  0.17054957680803867  0.8993328745416533  Uiso  ?  O
O1  1.0  0.57512423443809  0.19760507325942442  0.8700360853468758  Uiso  ?  O
O1  1.0  0.5552417517737716  0.2214568281453796  0.9004770613514944  Uiso  ?  O
Ce1  1.0  0.5554195907147561  0.18436121383787937  0.9021824194369523  Uiso  ?  Ce
O1  1.0  0.5388242659290899  0.17306446123817348  0.8674540322373333  Uiso  ?  O
O1  1.0  0.520869934172297  0.19460133098960364  0.8981957406268561  Uiso  ?  O
O1  1.0  0.48420883344505233  0.17058987211946833  0.9006373731756788  Uiso  ?  O
O1  1.0  0.805508229733825  0.16903482032775105  0.5942236222673523  Uiso  ?  O
Ce1  1.0  0.8206509632233596  0.18303561121152825  0.685419171039596  Uiso  ?  Ce
Ce1  1.0  0.8223378384963402  0.1840961341750685  0.6234525839108026  Uiso  ?  Ce
Ce1  1.0  0.8393477810853838  0.2328047961887076  0.6518831873535004  Uiso  ?  Ce
O1  1.0  0.8381211302869618  0.1920107623338713  0.6552465458054836  Uiso  ?  O
O1  1.0  0.8215640882217141  0.22216461492262746  0.6244351283401339  Uiso  ?  O
O1  1.0  0.8246364024833164  0.22370780731696532  0.6868196010971013  Uiso  ?  O
O1  1.0  0.8055310156826032  0.24489120022827202  0.655435368052992  Uiso  ?  O
O1  1.0  0.8040288223358495  0.17280651501693375  0.6544719429365315  Uiso  ?  O
O1  1.0  0.7871432071952923  0.19739445191894825  0.6262828347199079  Uiso  ?  O
O1  1.0  0.7870107032962896  0.19727385525640442  0.6861846012802661  Uiso  ?  O
O1  1.0  0.7732408938451476  0.2235235243346948  0.65462693236163  Uiso  ?  O
Ce1  1.0  0.7847239763940796  0.23317574663671004  0.7470691983263283  Uiso  ?  Ce
Ce1  1.0  0.7903435334489154  0.23206722278913872  0.6834147808327581  Uiso  ?  Ce
O1  1.0  0.807559077030204  0.24623718405872125  0.7204548752330312  Uiso  ?  O
O1  1.0  0.768965903145356  0.22063311472317007  0.7170909134550327  Uiso  ?  O
O1  1.0  0.7505726948599303  0.244923778200377  0.6884260816772564  Uiso  ?  O
O1  1.0  0.7528039426662174  0.24324940265866496  0.7485168367714589  Uiso  ?  O
Ce1  1.0  0.7670130321082832  0.1853139993377085  0.6569144645513999  Uiso  ?  Ce
O1  1.0  0.7546535027116659  0.1682017258653535  0.6241713089812777  Uiso  ?  O
O1  1.0  0.7512006764676842  0.17187298835608814  0.6865265717309231  Uiso  ?  O
O1  1.0  0.7358370565847121  0.19547143747214346  0.6561529419049424  Uiso  ?  O
O1  1.0  0.7005248907313435  0.17323819744899874  0.6584264053439092  Uiso  ?  O
Ce1  1.0  0.769604304410853  0.18478208708091934  0.7204024918047839  Uiso  ?  Ce
Ce1  1.0  0.7160561274837799  0.1870240394755698  0.747842099770606  Uiso  ?  Ce
Ce1  1.0  0.7163937393974311  0.18562442623382175  0.6868593109582566  Uiso  ?  Ce
Ce1  1.0  0.7356320101218523  0.23739873960926566  0.7151045336189124  Uiso  ?  Ce
O1  1.0  0.736666748701971  0.1961976725200583  0.7200134774189286  Uiso  ?  O
O1  1.0  0.7138101462276739  0.21777627059855553  0.689051690707376  Uiso  ?  O
O1  1.0  0.7172765718185955  0.22284822532101406  0.7458631290348414  Uiso  ?  O
O1  1.0  0.7013123172316923  0.2458637729142835  0.7150888691200734  Uiso  ?  O
O1  1.0  0.6976081355518118  0.17150251233524122  0.7152619551004767  Uiso  ?  O
O1  1.0  0.6794775926970615  0.19539529872355524  0.6829264270186644  Uiso  ?  O
O1  1.0  0.682392795793297  0.1967531795445488  0.7460315067296563  Uiso  ?  O
O1  1.0  0.6612379759530298  0.2233065010745175  0.7153599081939243  Uiso  ?  O
Ce1  1.0  0.7351409132613677  0.23692873902511433  0.7782807328126549  Uiso  ?  Ce
Ce1  1.0  0.6803741535417926  0.237849581487151  0.8101648843344268  Uiso  ?  Ce
Ce1  1.0  0.6802266701800803  0.2340017385252413  0.7457023218709813  Uiso  ?  Ce
O1  1.0  0.6994562815956823  0.24614339536215574  0.7758852063822052  Uiso  ?  O
O1  1.0  0.6625633562084828  0.22296382452564795  0.7794928291556358  Uiso  ?  O
O1  1.0  0.6469590672272937  0.246616797045589  0.7450581570364871  Uiso  ?  O
O1  1.0  0.6444154053173914  0.24516943655577397  0.8068836198810698  Uiso  ?  O
Ce1  1.0  0.6629752023282104  0.18230887978035706  0.7157554644704646  Uiso  ?  Ce
O1  1.0  0.6477156607636033  0.17260952176278185  0.6875291286284292  Uiso  ?  O
O1  1.0  0.6446467615428582  0.17248921947133333  0.7460636407148694  Uiso  ?  O
O1  1.0  0.6293278485198408  0.19580110465339048  0.7153115339706123  Uiso  ?  O
O1  1.0  0.5929670069666304  0.17142653563320165  0.7159488216492111  Uiso  ?  O
Ce1  1.0  0.6622523143981313  0.18083118000097964  0.7803547361535084  Uiso  ?  Ce
Ce1  1.0  0.6108860393105717  0.18550206647718853  0.807769858600049  Uiso  ?  Ce
Ce1  1.0  0.6090984462078441  0.1864497675356856  0.7469426711776882  Uiso  ?  Ce
Ce1  1.0  0.6264464957059132  0.2351187847120255  0.7810915027255013  Uiso  ?  Ce
O1  1.0  0.6278278928602563  0.19599665551516185  0.7769452990651823  Uiso  ?  O
O1  1.0  0.6117228418898192  0.22191161098759368  0.7461176818174202  Uiso  ?  O
O1  1.0  0.6116027776712669  0.2212843363482149  0.8077081648802312  Uiso  ?  O
O1  1.0  0.5913328969047288  0.24366031436303345  0.7784601800040728  Uiso  ?  O
O1  1.0  0.5917515314290436  0.16963324712726524  0.7819644717772622  Uiso  ?  O
O1  1.0  0.5756262894060646  0.19631668112605763  0.7456747415847852  Uiso  ?  O
O1  1.0  0.5763745908060754  0.19642835660225202  0.8064467657838177  Uiso  ?  O
O1  1.0  0.5593297076589157  0.2219698615314836  0.7754711717130662  Uiso  ?  O
Ce1  1.0  0.6244516503485765  0.23337292537046497  0.837548412209032  Uiso  ?  Ce
Ce1  1.0  0.5740418699527724  0.2322467339629145  0.868632025967428  Uiso  ?  Ce
Ce1  1.0  0.5755366031157384  0.23159153892472575  0.8065167721616299  Uiso  ?  Ce
O1  1.0  0.5933365937013616  0.24540652413698952  0.8412934019801771  Uiso  ?  O
O1  1.0  0.5561752640327927  0.2198419340501406  0.8394816670930535  Uiso  ?  O
O1  1.0  0.5388097873292067  0.24543620905349472  0.8076115901731974  Uiso  ?  O
O1  1.0  0.5394235825626371  0.24798056623749307  0.8673528253973837  Uiso  ?  O
Ce1  1.0  0.5554865144032343  0.1835773264928006  0.7795387121832502  Uiso  ?  Ce
O1  1.0  0.5387236337768896  0.17172715545880107  0.7493054211507473  Uiso  ?  O
O1  1.0  0.5405992879262863  0.16717021001136534  0.8082308265632501  Uiso  ?  O
O1  1.0  0.5228309459709966  0.19333641963086318  0.7778711817237842  Uiso  ?  O
O1  1.0  0.4869180440762822  0.17135661093578192  0.7749889176140029  Uiso  ?  O
Ce1  1.0  0.5554727641426469  0.1856805846461385  0.8397640200752364  Uiso  ?  Ce
Ce1  1.0  0.5030189584667427  0.18375385936888983  0.869096101114173  Uiso  ?  Ce
Ce1  1.0  0.5035610741843471  0.18753480652301438  0.8060052181990265  Uiso  ?  Ce
Ce1  1.0  0.5205739691280065  0.23143477991580824  0.8381975256499883  Uiso  ?  Ce
O1  1.0  0.5223182652995879  0.19969245998534552  0.8414116865316443  Uiso  ?  O
O1  1.0  0.5036938654600381  0.22334129926411533  0.8093192305580242  Uiso  ?  O
O1  1.0  0.5026234552207259  0.2219912380715274  0.8671359430844042  Uiso  ?  O
O1  1.0  0.48573343447315875  0.24790420584987885  0.8378973270259737  Uiso  ?  O
O1  1.0  0.4855550150281508  0.16799697891846407  0.8379024017551615  Uiso  ?  O
O1  1.0  0.4692302144367367  0.1958617262512608  0.8096358287077804  Uiso  ?  O
O1  1.0  0.4689910205733757  0.19808318218367485  0.8666186623299479  Uiso  ?  O
O1  1.0  0.44981731551529835  0.22029687703322895  0.8378551770788254  Uiso  ?  O
Ce1  1.0  0.5201204145496411  0.23203733008370242  0.8994429997198456  Uiso  ?  Ce
Ce1  1.0  0.4680005167887427  0.2354159055966646  0.8686850973687544  Uiso  ?  Ce
O1  1.0  0.48410498672401925  0.24631094545058255  0.9007484552383264  Uiso  ?  O
O1  1.0  0.45223986546178074  0.22334044553442375  0.8992648478961645  Uiso  ?  O
O1  1.0  0.436226392398927  0.2494202917112699  0.8704102583219695  Uiso  ?  O
Ce1  1.0  0.4467313277047303  0.18496071583903928  0.8391723125046229  Uiso  ?  Ce
O1  1.0  0.43285002944773737  0.17296116786745178  0.8093334072553212  Uiso  ?  O
O1  1.0  0.43284096460834776  0.17280825236690922  0.8666262001434916  Uiso  ?  O
O1  1.0  0.4146932982759478  0.19614192727092156  0.8373908662426349  Uiso  ?  O
O1  1.0  0.37844957374466265  0.167600152800417  0.8390691745070014  Uiso  ?  O
Ce1  1.0  0.452271219351698  0.18345279394853062  0.8971714635759688  Uiso  ?  Ce
Ce1  1.0  0.39804390145539476  0.18579280368837991  0.8712463300405194  Uiso  ?  Ce
Ce1  1.0  0.4152148918354519  0.23539527386425824  0.9023757830972804  Uiso  ?  Ce
O1  1.0  0.41457269464710944  0.19743143210691352  0.8978698036638758  Uiso  ?  O
O1  1.0  0.39934834257924173  0.21996467723095722  0.8699001359004627  Uiso  ?  O
O1  1.0  0.37904681902497195  0.2469785783901851  0.8981590444704615  Uiso  ?  O
O1  1.0  0.3806235164007852  0.1741960831629987  0.8990033716988107  Uiso  ?  O
O1  1.0  0.36078630152567626  0.1964601515096048  0.8697938728130995  Uiso  ?  O
O1  1.0  0.34307555891379343  0.21964249539926783  0.9002930771433694  Uiso  ?  O
Ce1  1.0  0.3456245630217548  0.18486298830101872  0.9010577545332884  Uiso  ?  Ce
O1  1.0  0.32784450662183456  0.17214283644700817  0.8658978613955045  Uiso  ?  O
O1  1.0  0.30868141831668194  0.19657809615470628  0.8996796508271898  Uiso  ?  O
O1  1.0  0.27489973471668677  0.17073793139282956  0.8996821939225723  Uiso  ?  O
O1  1.0  0.8058814761222297  0.17448674947073897  0.4720875591494432  Uiso  ?  O
Ce1  1.0  0.824021009912041  0.18521114983951592  0.5605245590572143  Uiso  ?  Ce
Ce1  1.0  0.8271809417711932  0.18343821789876713  0.5047452227097161  Uiso  ?  Ce
Ce1  1.0  0.8395008285753774  0.23429663169532622  0.5319207700212464  Uiso  ?  Ce
O1  1.0  0.8230932719330186  0.22381766805463707  0.5018710984510988  Uiso  ?  O
O1  1.0  0.8212674894078291  0.22157450764746128  0.5613202257930279  Uiso  ?  O
O1  1.0  0.8075293986918747  0.2485730706428834  0.5334911617449036  Uiso  ?  O
O1  1.0  0.8055366146522873  0.17207898748489558  0.5341536017947822  Uiso  ?  O
O1  1.0  0.7879215682377226  0.19582525257849287  0.5021614205041034  Uiso  ?  O
O1  1.0  0.7866483292610733  0.19638866494193954  0.5648971558792086  Uiso  ?  O
O1  1.0  0.7714684365466821  0.2203068714512333  0.5326710028909819  Uiso  ?  O
Ce1  1.0  0.786959105985883  0.23424348343797463  0.6279437371991496  Uiso  ?  Ce
Ce1  1.0  0.7897209444415728  0.23335448234898828  0.5633696256373226  Uiso  ?  Ce
O1  1.0  0.8065178777139396  0.2446406139399301  0.5954855609992908  Uiso  ?  O
O1  1.0  0.7703429340722779  0.21775537222104677  0.5938661963778196  Uiso  ?  O
O1  1.0  0.7554192184451877  0.2465508250473716  0.5660669135502376  Uiso  ?  O
O1  1.0  0.7533665480961125  0.24899952935949565  0.6244199792402149  Uiso  ?  O
Ce1  1.0  0.7702144789704086  0.1832723117253223  0.5332840398357553  Uiso  ?  Ce
O1  1.0  0.7534580815332736  0.17190158596589716  0.4990820319874089  Uiso  ?  O
O1  1.0  0.7516923990114601  0.1726302973512746  0.5614992264234658  Uiso  ?  O
O1  1.0  0.7332602271157509  0.19643949010521336  0.531579956881465  Uiso  ?  O
O1  1.0  0.7027092252111152  0.16987347933625482  0.5330624276189938  Uiso  ?  O
Ce1  1.0  0.7722460296309844  0.18590398778347203  0.5961838369757527  Uiso  ?  Ce
Ce1  1.0  0.7154207840449925  0.18504355735404068  0.623453640472727  Uiso  ?  Ce
Ce1  1.0  0.7209461474169996  0.18168144173701395  0.5604281970843984  Uiso  ?  Ce
Ce1  1.0  0.7369486712028536  0.23299575808347192  0.5944735687851247  Uiso  ?  Ce
O1  1.0  0.7361824472299244  0.19737322578248226  0.5933618603148022  Uiso  ?  O
O1  1.0  0.7165306319311501  0.22028652001130647  0.563024843398488  Uiso  ?  O
O1  1.0  0.7170296049135011  0.22388051215173427  0.6251871531708199  Uiso  ?  O
O1  1.0  0.6992568675421493  0.24658122460210788  0.5928195650042414  Uiso  ?  O
O1  1.0  0.6979058905863003  0.17272356124177304  0.5952278277815147  Uiso  ?  O
O1  1.0  0.6822477423777707  0.19514825285451556  0.5639720479172691  Uiso  ?  O
O1  1.0  0.6791703383500116  0.19515349859584902  0.6229658330229232  Uiso  ?  O
O1  1.0  0.6640147714590368  0.22244254824668977  0.5937417105960279  Uiso  ?  O
Ce1  1.0  0.7335570395829288  0.2334491448558056  0.65482860379219  Uiso  ?  Ce
Ce1  1.0  0.6819288322901818  0.23487619128432954  0.6883397548706589  Uiso  ?  Ce
Ce1  1.0  0.6819960485409208  0.23379076827713074  0.6257157792629835  Uiso  ?  Ce
O1  1.0  0.6998013930364726  0.24781307178029197  0.6547652861968573  Uiso  ?  O
O1  1.0  0.6624941123025778  0.22137443484180988  0.655556569410228  Uiso  ?  O
O1  1.0  0.6457813789270818  0.24638646688968002  0.625113580821618  Uiso  ?  O
O1  1.0  0.6453636791412011  0.2477813407197997  0.687561489417252  Uiso  ?  O
Ce1  1.0  0.6633786092096114  0.18427937065176403  0.5927859231139224  Uiso  ?  Ce
O1  1.0  0.6462065716119003  0.17414805436416042  0.5633402816275299  Uiso  ?  O
O1  1.0  0.6469005928704983  0.16882910348250874  0.6253733970217797  Uiso  ?  O
O1  1.0  0.6290237652708099  0.1964728399361973  0.5949542362328366  Uiso  ?  O
O1  1.0  0.5925754385869597  0.1718882816178894  0.5922340003896573  Uiso  ?  O
Ce1  1.0  0.6632158170622371  0.1853242102300694  0.6560125314388094  Uiso  ?  Ce
Ce1  1.0  0.6103681190570458  0.1852878761082236  0.6845045675810169  Uiso  ?  Ce
Ce1  1.0  0.6078555030307994  0.1828932377472235  0.6265879887478506  Uiso  ?  Ce
Ce1  1.0  0.6281486912338459  0.2337456727456523  0.6563833246282879  Uiso  ?  Ce
O1  1.0  0.6290134214344838  0.19793634810301067  0.6521365502310066  Uiso  ?  O
O1  1.0  0.6093755781488845  0.2244648051824515  0.6256327372444297  Uiso  ?  O
O1  1.0  0.6131771310785863  0.22369556311728814  0.6882872938433685  Uiso  ?  O
O1  1.0  0.5925230137074048  0.2455514512829679  0.6516397272722141  Uiso  ?  O
O1  1.0  0.593089176360548  0.17595776908591784  0.6541926626399314  Uiso  ?  O
O1  1.0  0.5739103784206958  0.19838121636561729  0.6244403960443143  Uiso  ?  O
O1  1.0  0.5759629866599024  0.1958486934732587  0.6840469344813433  Uiso  ?  O
O1  1.0  0.5558091111708706  0.21841210336901357  0.6564396644106604  Uiso  ?  O
Ce1  1.0  0.6285748975284778  0.2377525460133049  0.7195247375792676  Uiso  ?  Ce
Ce1  1.0  0.5710422551548907  0.23627971717280571  0.7456417533794876  Uiso  ?  Ce
Ce1  1.0  0.5746244189983833  0.23351622396247865  0.6854820973095659  Uiso  ?  Ce
O1  1.0  0.5905075801778992  0.247823971725248  0.7173500561486429  Uiso  ?  O
O1  1.0  0.5584854607057625  0.2197340441004186  0.71795353481478  Uiso  ?  O
O1  1.0  0.5384186566609368  0.24637447331958873  0.6875026335285392  Uiso  ?  O
O1  1.0  0.539727628446618  0.24761228010670427  0.7461620382249348  Uiso  ?  O
Ce1  1.0  0.5546760535816715  0.1827612613140642  0.6547981261084735  Uiso  ?  Ce
O1  1.0  0.537143069030931  0.1693778950135671  0.6232536232539425  Uiso  ?  O
O1  1.0  0.5400261019162592  0.1720660630431741  0.6845815576139045  Uiso  ?  O
O1  1.0  0.5225764298798998  0.19699058360065339  0.6564512442986037  Uiso  ?  O
O1  1.0  0.4867207616393914  0.17132969428249506  0.6537452314458502  Uiso  ?  O
Ce1  1.0  0.5592331797700526  0.18446336573378466  0.7164671359042548  Uiso  ?  Ce
Ce1  1.0  0.5040521808659544  0.18403176737922597  0.7488316108483545  Uiso  ?  Ce
Ce1  1.0  0.5042123801767805  0.18693325378684125  0.6858822419765578  Uiso  ?  Ce
Ce1  1.0  0.5228449870807936  0.23230955052475458  0.7157267132287546  Uiso  ?  Ce
O1  1.0  0.5228788759094779  0.1942416124002343  0.7158968317032456  Uiso  ?  O
O1  1.0  0.5044807277963006  0.2181547577708406  0.6866766855855149  Uiso  ?  O
O1  1.0  0.5035837024593169  0.22099286129488033  0.7475341503513442  Uiso  ?  O
O1  1.0  0.48884211349555307  0.24745402478054215  0.7165793648645076  Uiso  ?  O
O1  1.0  0.4839395120649363  0.1693778026561757  0.7167511864451557  Uiso  ?  O
O1  1.0  0.46804829689327926  0.19668653866932395  0.683162330958334  Uiso  ?  O
O1  1.0  0.46840588571283515  0.19462678575695663  0.7464386907373238  Uiso  ?  O
O1  1.0  0.45317980600275043  0.2197525714925241  0.7167329624184003  Uiso  ?  O
Ce1  1.0  0.5257870603085429  0.23316086963645608  0.7779015235302209  Uiso  ?  Ce
Ce1  1.0  0.46879742906499283  0.2336676212844778  0.8087377880770489  Uiso  ?  Ce
Ce1  1.0  0.4715539686881552  0.2344880987185479  0.7470745719919112  Uiso  ?  Ce
O1  1.0  0.48705248383602223  0.24754646055419569  0.7806420460173679  Uiso  ?  O
O1  1.0  0.4503789261000671  0.22181176807134484  0.7754382375625264  Uiso  ?  O
O1  1.0  0.43292429792455045  0.24959074395341657  0.7449329366634154  Uiso  ?  O
O1  1.0  0.43488313855965427  0.2474977438684634  0.8075590661770627  Uiso  ?  O
Ce1  1.0  0.45127185790749147  0.1823205136180518  0.7139581232358068  Uiso  ?  Ce
O1  1.0  0.43318558488516107  0.17033434528487873  0.6840768115676794  Uiso  ?  O
O1  1.0  0.4343500435610281  0.17171209900965806  0.745736399212978  Uiso  ?  O
O1  1.0  0.4163831022914338  0.19972402117797708  0.7185535845992054  Uiso  ?  O
O1  1.0  0.3802440809642535  0.1740784121979513  0.716931542565576  Uiso  ?  O
Ce1  1.0  0.4480840007604986  0.18328447286072141  0.7777270991293138  Uiso  ?  Ce
Ce1  1.0  0.39923570634538813  0.18072776523402723  0.8075866465390433  Uiso  ?  Ce
Ce1  1.0  0.39809575369468625  0.18294031565029567  0.7469632969162362  Uiso  ?  Ce
Ce1  1.0  0.41514149318975935  0.23414771035491477  0.7755967994929547  Uiso  ?  Ce
O1  1.0  0.4156761241099717  0.19250394532814513  0.777501228739073  Uiso  ?  O
O1  1.0  0.3979260110421827  0.22206125444789918  0.7457560087450265  Uiso  ?  O
O1  1.0  0.39814391714916936  0.22072815019384226  0.8087302999737949  Uiso  ?  O
O1  1.0  0.3788996449158126  0.24476812598659972  0.7745410561679825  Uiso  ?  O
O1  1.0  0.3799196519756231  0.17056337046898631  0.7789502736217653  Uiso  ?  O
O1  1.0  0.3627055005878912  0.19640336525689384  0.7458332611324131  Uiso  ?  O
O1  1.0  0.3610506117655622  0.19651597351370623  0.8049594937288742  Uiso  ?  O
O1  1.0  0.3415405107210823  0.2238433207412361  0.7779337797505899  Uiso  ?  O
Ce1  1.0  0.4163776160624505  0.2312660744257172  0.8373940664919233  Uiso  ?  Ce
Ce1  1.0  0.3634335204930461  0.23514829454570405  0.8687876916080269  Uiso  ?  Ce
Ce1  1.0  0.3641239632657775  0.23377359927276614  0.8064494633117676  Uiso  ?  Ce
O1  1.0  0.38243983629838546  0.24444148367234755  0.8363950540748596  Uiso  ?  O
O1  1.0  0.3433497494265116  0.21981516631790143  0.8392076780981187  Uiso  ?  O
O1  1.0  0.32754616000408926  0.24584829214409995  0.8084491496785647  Uiso  ?  O
O1  1.0  0.325278105680621  0.24508230173355333  0.8704124593787808  Uiso  ?  O
Ce1  1.0  0.34494906365546507  0.18510255254117391  0.7782763004564096  Uiso  ?  Ce
O1  1.0  0.3252128371965084  0.1709172764375763  0.7442735499239567  Uiso  ?  O
O1  1.0  0.32558830335143985  0.16821559047539195  0.8062385076805427  Uiso  ?  O
O1  1.0  0.3096391681808532  0.19657935634348686  0.776672431585185  Uiso  ?  O
O1  1.0  0.2733101114766578  0.17296224432799592  0.7750089802067871  Uiso  ?  O
Ce1  1.0  0.3449724397512094  0.18396812920441993  0.8368573506326938  Uiso  ?  Ce
Ce1  1.0  0.2918397733843844  0.18610139615905985  0.8661639085117405  Uiso  ?  Ce
Ce1  1.0  0.2928047346379215  0.18657215479268965  0.8050749598105092  Uiso  ?  Ce
Ce1  1.0  0.31096713610766397  0.23448481676104482  0.8383136546501813  Uiso  ?  Ce
O1  1.0  0.3079709159032003  0.19709439031762682  0.8383113373602141  Uiso  ?  O
O1  1.0  0.2910316867794842  0.2213485812347995  0.8050059840304957  Uiso  ?  O
O1  1.0  0.2954408644791535  0.22281872512811768  0.8697759167386385  Uiso  ?  O
O1  1.0  0.27482989556727183  0.24423868984147923  0.8374160618691924  Uiso  ?  O
O1  1.0  0.270722622527149  0.1719915834467933  0.8364610146906611  Uiso  ?  O
O1  1.0  0.25627514894550296  0.19699310266446401  0.8079469144044277  Uiso  ?  O
O1  1.0  0.2560028069518026  0.19477729753948558  0.8704705743700043  Uiso  ?  O
O1  1.0  0.23955426914995268  0.2251055307597846  0.8383980316270174  Uiso  ?  O
Ce1  1.0  0.30763054526256167  0.23176255881995128  0.899722786219636  Uiso  ?  Ce
Ce1  1.0  0.25423702396472997  0.23480194484251563  0.8663657584817482  Uiso  ?  Ce
O1  1.0  0.22092215704951276  0.24757474183410716  0.8713463047581212  Uiso  ?  O
Ce1  1.0  0.23931885417083756  0.1854963566410181  0.8371683319093008  Uiso  ?  Ce
O1  1.0  0.2201504002083129  0.17304002109485095  0.8070044927064911  Uiso  ?  O
O1  1.0  0.2194897228602416  0.17168263613577803  0.8662313394451504  Uiso  ?  O
O1  1.0  0.20367735594045655  0.1963594515239064  0.8365432978716382  Uiso  ?  O
O1  1.0  0.16999171944812105  0.1720801762749711  0.8352897296470114  Uiso  ?  O
Ce1  1.0  0.1869081282130934  0.18334365641064299  0.8681216025060434  Uiso  ?  Ce
O1  1.0  0.18260072981505981  0.22098441535654856  0.867764199274914  Uiso  ?  O
O1  1.0  0.8058646502501069  0.16982984100498882  0.35017026053728434  Uiso  ?  O
Ce1  1.0  0.8259901983569011  0.18221349560270617  0.43990525290147875  Uiso  ?  Ce
Ce1  1.0  0.8228044720114441  0.18462898027163815  0.3824059104943939  Uiso  ?  Ce
O1  1.0  0.8248144929928797  0.2193808262933178  0.375174096923973  Uiso  ?  O
O1  1.0  0.8250648688231634  0.21961670197818642  0.44265063407390537  Uiso  ?  O
O1  1.0  0.8062751646906654  0.24509021279222223  0.41006156840967095  Uiso  ?  O
O1  1.0  0.8072406851649423  0.17131380589546347  0.4104253554059461  Uiso  ?  O
O1  1.0  0.7900180897218823  0.19388076582887223  0.38069615104919696  Uiso  ?  O
O1  1.0  0.7901905609433139  0.19579127704382931  0.4406747069305569  Uiso  ?  O
O1  1.0  0.77167264762257  0.21841509255348238  0.41159924613389137  Uiso  ?  O
Ce1  1.0  0.7883433979390628  0.234309122908682  0.504624459158516  Uiso  ?  Ce
Ce1  1.0  0.7880440952544402  0.2369351324730182  0.4402830992705479  Uiso  ?  Ce
O1  1.0  0.8062877714422128  0.24692954007145168  0.47423712761486436  Uiso  ?  O
O1  1.0  0.7669815796078948  0.22058526641279885  0.475299200476668  Uiso  ?  O
O1  1.0  0.755517482589421  0.24919919806037422  0.4406828363372695  Uiso  ?  O
O1  1.0  0.7553400687901632  0.2456544558286852  0.5012902318418667  Uiso  ?  O
Ce1  1.0  0.7704326591759532  0.18319312116229278  0.41096505326532823  Uiso  ?  Ce
O1  1.0  0.7533461277819881  0.17268326210626425  0.38303480714589583  Uiso  ?  O
O1  1.0  0.75052355333808  0.17236831072227324  0.440964993706669  Uiso  ?  O
O1  1.0  0.7357955049836025  0.1975851490413994  0.40968866999116  Uiso  ?  O
O1  1.0  0.6993992285771238  0.16965563712637802  0.4130117602706042  Uiso  ?  O
Ce1  1.0  0.7697728556852517  0.18410761206970983  0.4717785998618686  Uiso  ?  Ce
Ce1  1.0  0.7172225275632105  0.18084539860200408  0.5035396644727641  Uiso  ?  Ce
Ce1  1.0  0.7196931897560481  0.1862426896719928  0.4441964279371737  Uiso  ?  Ce
Ce1  1.0  0.7343992814693054  0.23391873617311035  0.4717947092266872  Uiso  ?  Ce
O1  1.0  0.7343856402508838  0.19811545112727622  0.4713467899519753  Uiso  ?  O
O1  1.0  0.7168406886236568  0.22151656698528435  0.4395290494369023  Uiso  ?  O
O1  1.0  0.7190151771264834  0.2207766849768658  0.5056183702958125  Uiso  ?  O
O1  1.0  0.7011215500527687  0.24448783027743734  0.4714652261685693  Uiso  ?  O
O1  1.0  0.7029074858249302  0.17267260039582605  0.4672949232459427  Uiso  ?  O
O1  1.0  0.6835050840260558  0.19495586303862072  0.43681545747684924  Uiso  ?  O
O1  1.0  0.6836610811317024  0.19722506220880773  0.5031830517805816  Uiso  ?  O
O1  1.0  0.6671328311437031  0.22268334430779266  0.47213251602285944  Uiso  ?  O
Ce1  1.0  0.7327052940566768  0.234213734371961  0.5344495124578014  Uiso  ?  Ce
Ce1  1.0  0.6830012238471838  0.2322083375873125  0.5642764528209805  Uiso  ?  Ce
Ce1  1.0  0.6835079678379608  0.23505120512736608  0.5037345708092875  Uiso  ?  Ce
O1  1.0  0.7010288473259944  0.24501260252339344  0.5350424724111069  Uiso  ?  O
O1  1.0  0.6658946206974575  0.22029419504006825  0.5315637383647879  Uiso  ?  O
O1  1.0  0.6478473342287951  0.24594008850670473  0.506748066561374  Uiso  ?  O
O1  1.0  0.6453811648126663  0.2448727372318737  0.5637462970183342  Uiso  ?  O
Ce1  1.0  0.6653718310061344  0.18611034795112477  0.47373230654691434  Uiso  ?  Ce
O1  1.0  0.6455082274647284  0.16849897468967368  0.4445416923118287  Uiso  ?  O
O1  1.0  0.6465185995597713  0.17183244402522932  0.5006320382774494  Uiso  ?  O
O1  1.0  0.6273904974723045  0.19610553791407737  0.4721532337024239  Uiso  ?  O
O1  1.0  0.5912743433954102  0.1738802662591668  0.4733282682225735  Uiso  ?  O
Ce1  1.0  0.6643709827591144  0.18380901621194728  0.5314489379017954  Uiso  ?  Ce
Ce1  1.0  0.6112916987522438  0.18434539807072367  0.5611268883470846  Uiso  ?  Ce
Ce1  1.0  0.6099005729887604  0.18208129790469874  0.5011138414934233  Uiso  ?  Ce
Ce1  1.0  0.6288994269263897  0.23044118205172812  0.534084531331367  Uiso  ?  Ce
O1  1.0  0.6331323537106575  0.19790643604325278  0.536005252717739  Uiso  ?  O
O1  1.0  0.6118714499451938  0.222152121471853  0.50164281868752  Uiso  ?  O
O1  1.0  0.611709795761897  0.22331935313894544  0.5637032350937009  Uiso  ?  O
O1  1.0  0.5948548972261463  0.2455263762073549  0.5304010773674428  Uiso  ?  O
O1  1.0  0.5932008439356609  0.17095505100899186  0.5308457087815419  Uiso  ?  O
O1  1.0  0.5743070215435612  0.19675969009524885  0.5032503744646296  Uiso  ?  O
O1  1.0  0.5758783898145108  0.1959015759179473  0.5617214533757696  Uiso  ?  O
O1  1.0  0.5586377022452591  0.22164015411659035  0.5302222926302191  Uiso  ?  O
Ce1  1.0  0.6305595450495346  0.23480933081867322  0.5951218890069775  Uiso  ?  Ce
Ce1  1.0  0.5758393331381847  0.23104700011392262  0.6285018648482318  Uiso  ?  Ce
Ce1  1.0  0.577384515476191  0.23254039740228993  0.5650426111474021  Uiso  ?  Ce
O1  1.0  0.5908068971847424  0.24529407545613907  0.5939261410331594  Uiso  ?  O
O1  1.0  0.5586086236548884  0.22176118982989546  0.5953639030871984  Uiso  ?  O
O1  1.0  0.5419264948640058  0.24545134874598365  0.5622725357356311  Uiso  ?  O
O1  1.0  0.5441987528718656  0.24875934300851843  0.6269176174073003  Uiso  ?  O
Ce1  1.0  0.5587715385586094  0.18547175784702166  0.5346478857890722  Uiso  ?  Ce
O1  1.0  0.5411747367264386  0.17062702576460212  0.5017673805786017  Uiso  ?  O
O1  1.0  0.5420651667582544  0.17121623153743787  0.5636839374686959  Uiso  ?  O
O1  1.0  0.5237467273236323  0.19767756613246856  0.5296691360825377  Uiso  ?  O
O1  1.0  0.48761459673974056  0.1700519593498498  0.5306185421703105  Uiso  ?  O
Ce1  1.0  0.557124849501443  0.18319847133125658  0.593019507883664  Uiso  ?  Ce
Ce1  1.0  0.5043937322153903  0.18268108405404127  0.6216380466565368  Uiso  ?  Ce
Ce1  1.0  0.5041343529386806  0.18652662529763633  0.5600160201921516  Uiso  ?  Ce
Ce1  1.0  0.5240507215784567  0.23277721213041289  0.5923277405706888  Uiso  ?  Ce
O1  1.0  0.5194661261951075  0.19664852648398007  0.5942963405613617  Uiso  ?  O
O1  1.0  0.504527052960336  0.2207507922478207  0.5634088980379582  Uiso  ?  O
O1  1.0  0.5040359700411134  0.22087341102483013  0.6248868288635504  Uiso  ?  O
O1  1.0  0.48828455730531234  0.24735024546691206  0.5958512345543765  Uiso  ?  O
O1  1.0  0.4871417373288386  0.17205725091856444  0.5936461754101868  Uiso  ?  O
O1  1.0  0.47274713678725144  0.19438799540527774  0.5654031325664582  Uiso  ?  O
O1  1.0  0.47380263548734614  0.19711983284679432  0.6218980092599574  Uiso  ?  O
O1  1.0  0.4504275160665146  0.22145279294937403  0.5932476135620174  Uiso  ?  O
Ce1  1.0  0.5220993511009373  0.23257964976112364  0.6530362776298275  Uiso  ?  Ce
Ce1  1.0  0.4690951991353556  0.23340057509324127  0.6841052712299248  Uiso  ?  Ce
Ce1  1.0  0.47031594250999376  0.23702234164550517  0.6260521989299764  Uiso  ?  Ce
O1  1.0  0.484789567053623  0.2527357907500106  0.6532914453789351  Uiso  ?  O
O1  1.0  0.451456487435215  0.2215072038571444  0.655223088742496  Uiso  ?  O
O1  1.0  0.43515533605639234  0.24383434729159645  0.6251641713956169  Uiso  ?  O
O1  1.0  0.43491222068854224  0.24523084141276416  0.686421125191182  Uiso  ?  O
Ce1  1.0  0.452142607551904  0.1837680725085244  0.5934857520266771  Uiso  ?  Ce
O1  1.0  0.4351769792963444  0.1698984846114056  0.560904287256349  Uiso  ?  O
O1  1.0  0.43206694946209384  0.17285434653050588  0.6263704825468037  Uiso  ?  O
O1  1.0  0.4206311153427045  0.19601372922750146  0.591793845878102  Uiso  ?  O
O1  1.0  0.37816508035416657  0.1724692143580038  0.592592231629535  Uiso  ?  O
Ce1  1.0  0.45233094268019475  0.18412626074587302  0.654467132543501  Uiso  ?  Ce
Ce1  1.0  0.39853858035358936  0.18376089626603365  0.6821525150522088  Uiso  ?  Ce
Ce1  1.0  0.39794960793088924  0.18507884028072785  0.6224338121112688  Uiso  ?  Ce
Ce1  1.0  0.4124731739557684  0.232632674328175  0.6541472930823125  Uiso  ?  Ce
O1  1.0  0.4141262441942008  0.19772984856259826  0.6549843153861048  Uiso  ?  O
O1  1.0  0.399201162942849  0.2209136894639801  0.6243446636158719  Uiso  ?  O
O1  1.0  0.3976745288093957  0.2214650145370737  0.6866342032620127  Uiso  ?  O
O1  1.0  0.3783350299004607  0.24636885837969721  0.6554471180045168  Uiso  ?  O
O1  1.0  0.3828349098514637  0.1720823813164636  0.6527299379010926  Uiso  ?  O
O1  1.0  0.3618704829351383  0.19741978363565413  0.6247198871200578  Uiso  ?  O
O1  1.0  0.3636817759018541  0.19721190843150738  0.6840877215837282  Uiso  ?  O
O1  1.0  0.344183626023364  0.2218600334443739  0.6529217145036349  Uiso  ?  O
Ce1  1.0  0.4192766413544618  0.23525825242134837  0.717344412010088  Uiso  ?  Ce
Ce1  1.0  0.3644602107237392  0.23644501541287266  0.7442050059049633  Uiso  ?  Ce
Ce1  1.0  0.36321572906337984  0.2328043954821009  0.6870075040763665  Uiso  ?  Ce
O1  1.0  0.38015902516415473  0.24707998695244082  0.7169697124322144  Uiso  ?  O
O1  1.0  0.3446598621741534  0.22151884209359093  0.7173632785404763  Uiso  ?  O
O1  1.0  0.3307144058446862  0.24685858772311195  0.6799214497070728  Uiso  ?  O
O1  1.0  0.327572258281546  0.24619572196127237  0.745133805828704  Uiso  ?  O
Ce1  1.0  0.3452484240352148  0.18169808154070852  0.6514811725490182  Uiso  ?  Ce
O1  1.0  0.3313003131426084  0.16977481152582802  0.6220814673265609  Uiso  ?  O
O1  1.0  0.329488789346975  0.17074174457152283  0.683041064339746  Uiso  ?  O
O1  1.0  0.3093712211688296  0.19828584949396574  0.654543924422767  Uiso  ?  O
O1  1.0  0.275025114578297  0.17116226537068088  0.6538253757629592  Uiso  ?  O
Ce1  1.0  0.34519357311413484  0.18394928692719392  0.7150333319170209  Uiso  ?  Ce
Ce1  1.0  0.2925863746689842  0.1794937356835908  0.7445096014761747  Uiso  ?  Ce
Ce1  1.0  0.2902543937335103  0.18718100278576388  0.6821751857452102  Uiso  ?  Ce
Ce1  1.0  0.3106155358919969  0.2329037103595344  0.7172172521855341  Uiso  ?  Ce
O1  1.0  0.30942192819156045  0.1982950717390491  0.7151929024031285  Uiso  ?  O
O1  1.0  0.29450441720291454  0.2218202062496336  0.6850513612328446  Uiso  ?  O
O1  1.0  0.2910762996062417  0.21961876693191926  0.7479889061760352  Uiso  ?  O
O1  1.0  0.27505058442494795  0.24684584710707153  0.7153503686456621  Uiso  ?  O
O1  1.0  0.2750472439313373  0.17246473227751827  0.7160770713553818  Uiso  ?  O
O1  1.0  0.2593869421118514  0.1953556843845982  0.6827594846981894  Uiso  ?  O
O1  1.0  0.2585829754712316  0.19421902424682802  0.7442759593409235  Uiso  ?  O
O1  1.0  0.24014632825214888  0.221717913669537  0.7151242033153994  Uiso  ?  O
Ce1  1.0  0.30723626094438816  0.2371124289770055  0.7775980527936232  Uiso  ?  Ce
Ce1  1.0  0.25416609045119404  0.23690436874171342  0.8037617281686825  Uiso  ?  Ce
Ce1  1.0  0.2562383269500891  0.2326458307214718  0.7427128053955255  Uiso  ?  Ce
O1  1.0  0.2716408137465834  0.24284806033545925  0.776062052063405  Uiso  ?  O
O1  1.0  0.23540982991562195  0.22100275838676872  0.775475664610787  Uiso  ?  O
O1  1.0  0.22217468122357314  0.24772725270583665  0.7450233050725071  Uiso  ?  O
O1  1.0  0.2198277540813105  0.2446694804907028  0.8064211302472998  Uiso  ?  O
Ce1  1.0  0.24161785839047614  0.18271350335612455  0.7144256887164507  Uiso  ?  Ce
O1  1.0  0.22046177971827624  0.17069598906635983  0.6866467257450514  Uiso  ?  O
O1  1.0  0.22243834555318304  0.17360750443251144  0.7417187650459988  Uiso  ?  O
O1  1.0  0.20419824517984914  0.1976942344771333  0.713724252669306  Uiso  ?  O
O1  1.0  0.16999547739491824  0.16923047723941978  0.7120268939630555  Uiso  ?  O
Ce1  1.0  0.2384502338011755  0.18549025453606788  0.7772475103197395  Uiso  ?  Ce
Ce1  1.0  0.18575422021723675  0.18502650576300622  0.8049069159293707  Uiso  ?  Ce
Ce1  1.0  0.1857740489325045  0.18797342397794192  0.7482622376762892  Uiso  ?  Ce
Ce1  1.0  0.20413239019845827  0.23381795857734228  0.7772526892622864  Uiso  ?  Ce
O1  1.0  0.20080980480457325  0.19548329726528288  0.7737802786681373  Uiso  ?  O
O1  1.0  0.18450549428802873  0.22326116496628715  0.7460710018096384  Uiso  ?  O
O1  1.0  0.18537040406094615  0.22036485435536332  0.8076672702560611  Uiso  ?  O
O1  1.0  0.16848259094926113  0.24680076393134398  0.7757868827855328  Uiso  ?  O
O1  1.0  0.16597551788414538  0.17365966634089727  0.7747754465748194  Uiso  ?  O
Ce1  1.0  0.20240904066471335  0.23442204035293135  0.8378452110975914  Uiso  ?  Ce
O1  1.0  0.16705304168004292  0.24709324081231684  0.8363283573516749  Uiso  ?  O
O1  1.0  0.8105693215832791  0.17239170693675504  0.22837238433754073  Uiso  ?  O
Ce1  1.0  0.8218170506748989  0.18481387718016898  0.3166622973670552  Uiso  ?  Ce
Ce1  1.0  0.8246418278402073  0.1826526564935454  0.26083929665950184  Uiso  ?  Ce
O1  1.0  0.8248982874540888  0.2209802296094388  0.25597717512744705  Uiso  ?  O
O1  1.0  0.8229172077811953  0.22266293760594613  0.31758715888326194  Uiso  ?  O
O1  1.0  0.8070978174019456  0.24443902911450982  0.28783553852516797  Uiso  ?  O
O1  1.0  0.8054649259893141  0.17247225010481604  0.28770267582937337  Uiso  ?  O
O1  1.0  0.7916889901130086  0.19955831343484462  0.25637642895538526  Uiso  ?  O
O1  1.0  0.7882552927375361  0.19658215227980327  0.3193334800078494  Uiso  ?  O
O1  1.0  0.7740952944861035  0.22028581436539368  0.28742320881230304  Uiso  ?  O
Ce1  1.0  0.7906012366881524  0.23717280872046512  0.37935355625433764  Uiso  ?  Ce
Ce1  1.0  0.7876540487582757  0.23791621562328383  0.3185793399406824  Uiso  ?  Ce
O1  1.0  0.8087907820064596  0.24838482629094732  0.35137251134722297  Uiso  ?  O
O1  1.0  0.7694450011138662  0.22632348604869257  0.34982938302741134  Uiso  ?  O
O1  1.0  0.7545514069259657  0.2445807455744083  0.32016876888910695  Uiso  ?  O
O1  1.0  0.7541631827029704  0.2489302970527562  0.3824071127030806  Uiso  ?  O
Ce1  1.0  0.7747437361809939  0.18455838043978198  0.28919265009603123  Uiso  ?  Ce
O1  1.0  0.7531732980499078  0.1707298873826954  0.25649017175196154  Uiso  ?  O
O1  1.0  0.7541593236170226  0.1713323329423327  0.3188549297423675  Uiso  ?  O
O1  1.0  0.7384521766623823  0.19732421284267126  0.2866849407289742  Uiso  ?  O
O1  1.0  0.7014251852817384  0.17075435822186927  0.2865157751032341  Uiso  ?  O
Ce1  1.0  0.7696176825934313  0.18184758662912906  0.34976736716755813  Uiso  ?  Ce
Ce1  1.0  0.7184531680069488  0.1844779516541845  0.3771465515387986  Uiso  ?  Ce
Ce1  1.0  0.7188471189112036  0.18086644780288086  0.31960408981580046  Uiso  ?  Ce
Ce1  1.0  0.7351447133071048  0.23376506719414503  0.34948361395628075  Uiso  ?  Ce
O1  1.0  0.7359857079077996  0.19481826446713954  0.34736541499281964  Uiso  ?  O
O1  1.0  0.7180032917700488  0.22268170635075188  0.31578397019566573  Uiso  ?  O
O1  1.0  0.718634922434101  0.22082459826032824  0.3829212102219524  Uiso  ?  O
O1  1.0  0.6992500737600976  0.24700031402826317  0.34699368862204966  Uiso  ?  O
O1  1.0  0.6973635678005802  0.17064400669496724  0.34921144672163745  Uiso  ?  O
O1  1.0  0.6825070580873223  0.19809870756845466  0.31746597654076236  Uiso  ?  O
O1  1.0  0.6842908718354541  0.19404125787092563  0.3825609927624571  Uiso  ?  O
O1  1.0  0.6656654176245141  0.22160120282473567  0.34869213776214475  Uiso  ?  O
Ce1  1.0  0.7334859841686598  0.23606744566445698  0.41114454443682197  Uiso  ?  Ce
Ce1  1.0  0.6842623603597917  0.23282135498975814  0.44253768962816514  Uiso  ?  Ce
Ce1  1.0  0.6857482625415784  0.23354128564608978  0.37636236142705315  Uiso  ?  Ce
O1  1.0  0.7012346880406899  0.24981116083995064  0.40898576569350636  Uiso  ?  O
O1  1.0  0.6669981712978416  0.22347414610854618  0.4099568906502098  Uiso  ?  O
O1  1.0  0.6445080971805511  0.24632020513219038  0.3807498566261607  Uiso  ?  O
O1  1.0  0.6478668834645275  0.24415325992036724  0.4432084063848692  Uiso  ?  O
Ce1  1.0  0.6639735340449949  0.18634364951542234  0.3480806113061661  Uiso  ?  Ce
O1  1.0  0.6455483557057393  0.16948597084361505  0.3184190633823117  Uiso  ?  O
O1  1.0  0.6481116862069634  0.17354541376969038  0.37807141726052446  Uiso  ?  O
O1  1.0  0.6340462558379057  0.1971540426206565  0.3487530208257678  Uiso  ?  O
O1  1.0  0.5948937613399831  0.17283305742252475  0.34769977210325426  Uiso  ?  O
Ce1  1.0  0.6649972125102738  0.18291377376264573  0.41043098507023074  Uiso  ?  Ce
Ce1  1.0  0.6133911742709199  0.18546341911523215  0.4399585335303241  Uiso  ?  Ce
Ce1  1.0  0.6118783472161725  0.18372515543866233  0.3830784668759296  Uiso  ?  Ce
Ce1  1.0  0.6293436503406213  0.23349241703967674  0.41104511462842197  Uiso  ?  Ce
O1  1.0  0.6266385700284388  0.19784167661567525  0.4093812405793061  Uiso  ?  O
O1  1.0  0.6129729097585565  0.22123659695751335  0.3791263790987785  Uiso  ?  O
O1  1.0  0.6113180538210824  0.22397324395933788  0.438538955531334  Uiso  ?  O
O1  1.0  0.5924711986593929  0.24591862057359998  0.4074520241276713  Uiso  ?  O
O1  1.0  0.5934278426297219  0.17053367619486856  0.4090059135328177  Uiso  ?  O
O1  1.0  0.5773871232326058  0.197636608666833  0.3791656426017261  Uiso  ?  O
O1  1.0  0.576509860327322  0.19748131096193403  0.44248218664020195  Uiso  ?  O
O1  1.0  0.5584264966490537  0.2207853416014072  0.4093574847066462  Uiso  ?  O
Ce1  1.0  0.6304973619863163  0.23305346309286332  0.47108849696251115  Uiso  ?  Ce
Ce1  1.0  0.578950672777957  0.23392778953911048  0.5009512534749839  Uiso  ?  Ce
Ce1  1.0  0.5768258325170258  0.23338854165449435  0.4420445290243693  Uiso  ?  Ce
O1  1.0  0.5928192276505775  0.24862529284619272  0.47109367247498996  Uiso  ?  O
O1  1.0  0.5559622989651656  0.22488519277644264  0.47300877837535843  Uiso  ?  O
O1  1.0  0.541473997670487  0.24538556957456956  0.43755620571081566  Uiso  ?  O
O1  1.0  0.5406973473678479  0.24666428596782514  0.5032036464177956  Uiso  ?  O
Ce1  1.0  0.5550267537599173  0.18310413836125697  0.4092986730471238  Uiso  ?  Ce
O1  1.0  0.5408637489575874  0.17088510739092264  0.3791031250390333  Uiso  ?  O
O1  1.0  0.5411132171698562  0.16597984122340556  0.44237657338209296  Uiso  ?  O
O1  1.0  0.5249740547601398  0.19738616738354825  0.41113761505259905  Uiso  ?  O
O1  1.0  0.489536599510552  0.17198073012651113  0.4106761729831157  Uiso  ?  O
Ce1  1.0  0.5552729809999296  0.18435834743425006  0.47011359233412126  Uiso  ?  Ce
Ce1  1.0  0.5033827679839509  0.1849911639142086  0.5018043176639321  Uiso  ?  Ce
Ce1  1.0  0.5035744926808182  0.18681673683964245  0.441236212212727  Uiso  ?  Ce
Ce1  1.0  0.5234171959480656  0.23424189508084262  0.4700447571365853  Uiso  ?  Ce
O1  1.0  0.5233950517109459  0.1985036326159948  0.46976872891595506  Uiso  ?  O
O1  1.0  0.5032806302945811  0.21751042372464977  0.44009820973997177  Uiso  ?  O
O1  1.0  0.505352479834997  0.22320334869594133  0.5031409043049166  Uiso  ?  O
O1  1.0  0.4865063573102428  0.24822481949784966  0.46945526477731025  Uiso  ?  O
O1  1.0  0.4898197176725627  0.17285357764410605  0.4708037805214689  Uiso  ?  O
O1  1.0  0.4748441377327633  0.19699483775280438  0.4397981149735642  Uiso  ?  O
O1  1.0  0.4696167694574757  0.19506985715941644  0.49887428948697543  Uiso  ?  O
O1  1.0  0.4532579209814374  0.2204709303929977  0.46962606774283605  Uiso  ?  O
Ce1  1.0  0.5221614162623296  0.23297041333041618  0.5330786927537832  Uiso  ?  Ce
Ce1  1.0  0.46906757700062146  0.23026477423301048  0.5619961769227096  Uiso  ?  Ce
Ce1  1.0  0.4700255821940884  0.2339484896567454  0.49976797217156194  Uiso  ?  Ce
O1  1.0  0.48844957738217865  0.24676919748918794  0.5310068993537324  Uiso  ?  O
O1  1.0  0.453455025006257  0.21957154887625932  0.5318053079210218  Uiso  ?  O
O1  1.0  0.4345922354411148  0.24852800904085998  0.5019874197144651  Uiso  ?  O
O1  1.0  0.4344194761161403  0.2444553897729298  0.56383360675535  Uiso  ?  O
Ce1  1.0  0.4511847169772566  0.1811908045116595  0.4714030894946385  Uiso  ?  Ce
O1  1.0  0.43281512971728636  0.16811731285644224  0.4385048108594936  Uiso  ?  O
O1  1.0  0.43377671053837946  0.17490218472619376  0.5028821440283399  Uiso  ?  O
O1  1.0  0.4155650661162633  0.1971056812945086  0.46922108919411926  Uiso  ?  O
O1  1.0  0.3813816302616099  0.16893102995070297  0.46865857860826576  Uiso  ?  O
Ce1  1.0  0.4525465849963188  0.18270066134367127  0.5318046270918733  Uiso  ?  Ce
Ce1  1.0  0.40193397229905437  0.18157557832107932  0.5611202816688844  Uiso  ?  Ce
Ce1  1.0  0.3985197300696173  0.18262663507479068  0.5027707853466274  Uiso  ?  Ce
Ce1  1.0  0.4169476020225896  0.23531040375315215  0.5328465047273304  Uiso  ?  Ce
O1  1.0  0.4189038641234787  0.19560129057724074  0.529781146983704  Uiso  ?  O
O1  1.0  0.4016361903531087  0.22106861471122224  0.49992264599776914  Uiso  ?  O
O1  1.0  0.3934624755191134  0.22116436356409985  0.5615945688901333  Uiso  ?  O
O1  1.0  0.3817923107680776  0.24662334132340233  0.5294357148925689  Uiso  ?  O
O1  1.0  0.38089163025876216  0.17252325559524687  0.5285102604938371  Uiso  ?  O
O1  1.0  0.3642624817744737  0.19616642993664613  0.5017472470123865  Uiso  ?  O
O1  1.0  0.3623180141282742  0.19943712508756203  0.5624396466341501  Uiso  ?  O
O1  1.0  0.3427248625536296  0.22267488109320574  0.5304595557092111  Uiso  ?  O
Ce1  1.0  0.41584901037219285  0.23630398489105373  0.5933208076795128  Uiso  ?  Ce
Ce1  1.0  0.36080282426121146  0.2343761790231152  0.6244225990094482  Uiso  ?  Ce
Ce1  1.0  0.36280347840280064  0.23372660927939518  0.5635301496495239  Uiso  ?  Ce
O1  1.0  0.38154868857465885  0.25029278013888684  0.5922598581609729  Uiso  ?  O
O1  1.0  0.34956061320083615  0.22259619765217456  0.59203759839359  Uiso  ?  O
O1  1.0  0.3250865409905348  0.24832517963293424  0.5612033845862823  Uiso  ?  O
O1  1.0  0.3273894447626482  0.24370997173145345  0.6218112663183293  Uiso  ?  O
Ce1  1.0  0.34467144634139374  0.1841140251127781  0.5286012430307468  Uiso  ?  Ce
O1  1.0  0.330040656419697  0.17514231243697798  0.4994161307683048  Uiso  ?  O
O1  1.0  0.32866518383808163  0.17197538002035775  0.563718145377492  Uiso  ?  O
O1  1.0  0.3093142422539406  0.1941241948405068  0.5287005344306948  Uiso  ?  O
O1  1.0  0.27495134537422244  0.17112970400405425  0.5282868360135715  Uiso  ?  O
Ce1  1.0  0.34511268553041263  0.1875913090360678  0.5914942618472525  Uiso  ?  Ce
Ce1  1.0  0.2930530413757702  0.18492650722859652  0.6250941016415716  Uiso  ?  Ce
Ce1  1.0  0.29397149678239914  0.18579360650242324  0.5610050198507839  Uiso  ?  Ce
Ce1  1.0  0.30955996239242445  0.23540198663742157  0.5923638572315707  Uiso  ?  Ce
O1  1.0  0.31078133109405054  0.19427910884657001  0.5911825654912511  Uiso  ?  O
O1  1.0  0.29590487815663274  0.2216376662530742  0.5620907238787552  Uiso  ?  O
O1  1.0  0.2910910768649273  0.22228369413142102  0.6229211677540513  Uiso  ?  O
O1  1.0  0.2735138287765843  0.2454331523471862  0.5894303171775479  Uiso  ?  O
O1  1.0  0.27303533827112114  0.17221750192049454  0.5923277954753895  Uiso  ?  O
O1  1.0  0.25454495156323287  0.1966125419267887  0.5620178915360089  Uiso  ?  O
O1  1.0  0.25792774245192135  0.19504321474261002  0.6194022748592772  Uiso  ?  O
O1  1.0  0.24246169427632136  0.21746879481645656  0.5912628529171161  Uiso  ?  O
Ce1  1.0  0.30733966431806176  0.23411619050981772  0.6551868814466836  Uiso  ?  Ce
Ce1  1.0  0.25624228156766227  0.23397156308319575  0.684435419729638  Uiso  ?  Ce
Ce1  1.0  0.25629578468708714  0.23409792041048438  0.6219186874296078  Uiso  ?  Ce
O1  1.0  0.27621199021365794  0.2469851311031973  0.6528481868228014  Uiso  ?  O
O1  1.0  0.2346090207630758  0.2222580094355634  0.6510910013839782  Uiso  ?  O
O1  1.0  0.22140842898735025  0.2470314512873306  0.6220541227649293  Uiso  ?  O
O1  1.0  0.2210367968266713  0.24724289785353668  0.684985254366112  Uiso  ?  O
Ce1  1.0  0.23778759131283092  0.18301209455462644  0.5938155568416272  Uiso  ?  Ce
O1  1.0  0.2214908215197031  0.17317708253286568  0.5608216432708125  Uiso  ?  O
O1  1.0  0.22410461866424494  0.1713326942571931  0.6245946076443755  Uiso  ?  O
O1  1.0  0.2027580151956415  0.194862625506146  0.5911476055160332  Uiso  ?  O
O1  1.0  0.17061192495775598  0.17028307439533905  0.5956596836519856  Uiso  ?  O
Ce1  1.0  0.2381115189778709  0.18417058060158872  0.6538352402056641  Uiso  ?  Ce
Ce1  1.0  0.184775349872033  0.18264451410172314  0.6858859919306404  Uiso  ?  Ce
Ce1  1.0  0.18815256583496695  0.1831398911802821  0.6207281793695026  Uiso  ?  Ce
Ce1  1.0  0.20390155365417365  0.23704940912728067  0.6523617030740894  Uiso  ?  Ce
O1  1.0  0.2035827485956852  0.19709665923765432  0.6529291071705102  Uiso  ?  O
O1  1.0  0.18665796112022526  0.22320955931118622  0.6237690339041725  Uiso  ?  O
O1  1.0  0.18938484756692764  0.2207928716526504  0.6817925407451222  Uiso  ?  O
O1  1.0  0.16827995799072096  0.24798218778889716  0.6512037307676944  Uiso  ?  O
O1  1.0  0.16808971885531007  0.1734530342021683  0.6503403769850147  Uiso  ?  O
Ce1  1.0  0.2020689460986253  0.2334184549449654  0.7169352973915694  Uiso  ?  Ce
O1  1.0  0.1677059805139341  0.24595512618889098  0.7132901235433513  Uiso  ?  O
Ce1  1.0  0.8263199729904201  0.18299296761599304  0.19651851344360982  Uiso  ?  Ce
Ce1  1.0  0.8278039010415351  0.1854878840251854  0.13586197566916675  Uiso  ?  Ce
O1  1.0  0.8261078086997419  0.22300001903150155  0.13405469532777253  Uiso  ?  O
O1  1.0  0.826070075710574  0.2219021753958156  0.19690025506088848  Uiso  ?  O
O1  1.0  0.8069230834060329  0.24727429562365774  0.16702093918619806  Uiso  ?  O
O1  1.0  0.8072971369400884  0.1708466224628987  0.1688266965846054  Uiso  ?  O
O1  1.0  0.7914564381366783  0.1989767689878084  0.1352115447117309  Uiso  ?  O
O1  1.0  0.789079825315565  0.19917898132125875  0.19598409946330583  Uiso  ?  O
O1  1.0  0.7748724764316353  0.2231045355320193  0.1659855187894324  Uiso  ?  O
Ce1  1.0  0.7884551495519772  0.23543579661940622  0.2579851266356121  Uiso  ?  Ce
Ce1  1.0  0.7907434678874486  0.23625137699265397  0.19501197118831903  Uiso  ?  Ce
O1  1.0  0.8082796336639396  0.24853754827720104  0.2265748431551089  Uiso  ?  O
O1  1.0  0.7741198483738786  0.2209243408880301  0.2284338132286112  Uiso  ?  O
O1  1.0  0.7513261322032869  0.24776055589293214  0.19647783117615938  Uiso  ?  O
O1  1.0  0.7543229684482466  0.24435391225793474  0.2558622829044984  Uiso  ?  O
Ce1  1.0  0.7703413072958801  0.18384121369542847  0.1664534552512098  Uiso  ?  Ce
O1  1.0  0.7556664866250032  0.17207922951147608  0.13275884032362936  Uiso  ?  O
O1  1.0  0.7556957441455593  0.17305304985937614  0.19738602156920326  Uiso  ?  O
O1  1.0  0.7370517785225542  0.19669177046734337  0.1638122589142799  Uiso  ?  O
O1  1.0  0.7026626172132733  0.173016961202401  0.16661091243956067  Uiso  ?  O
Ce1  1.0  0.7743460687659772  0.1845000606730062  0.22553045355040086  Uiso  ?  Ce
Ce1  1.0  0.7166724954616586  0.18351457054453502  0.25825808018324975  Uiso  ?  Ce
Ce1  1.0  0.7189719272246528  0.18559717899813918  0.19358671563590446  Uiso  ?  Ce
Ce1  1.0  0.7381113105450775  0.23739184277229597  0.22568148794865112  Uiso  ?  Ce
O1  1.0  0.7355104899582078  0.19558306575356021  0.22672857785970987  Uiso  ?  O
O1  1.0  0.7207072073140349  0.22176509150925777  0.19630914640338445  Uiso  ?  O
O1  1.0  0.7204432414397894  0.22189662155265596  0.25536455713786066  Uiso  ?  O
O1  1.0  0.7017481657602959  0.24932000740527283  0.22651069999771017  Uiso  ?  O
O1  1.0  0.7024849152238145  0.1706158733152776  0.22432919835474027  Uiso  ?  O
O1  1.0  0.6822492755197315  0.1959097356355894  0.19652419436032062  Uiso  ?  O
O1  1.0  0.6838722262336545  0.19560966071101596  0.2567420598674279  Uiso  ?  O
O1  1.0  0.6655207658869888  0.2228023774471532  0.22551222889503503  Uiso  ?  O
Ce1  1.0  0.7362583440659515  0.23623184354839694  0.2907382857365041  Uiso  ?  Ce
Ce1  1.0  0.6813140952460219  0.23432024642029695  0.31693053495924917  Uiso  ?  Ce
Ce1  1.0  0.6843847255101203  0.23192904724859076  0.2566096711069007  Uiso  ?  Ce
O1  1.0  0.702942754034346  0.24654232767830306  0.28574136284579077  Uiso  ?  O
O1  1.0  0.6652097818008557  0.22255842893379002  0.28645279898457154  Uiso  ?  O
O1  1.0  0.6483290076561086  0.24612688585474418  0.2554675295965384  Uiso  ?  O
O1  1.0  0.6480417859491386  0.24718545696231337  0.3206035751911751  Uiso  ?  O
Ce1  1.0  0.6660709686582613  0.18122249750874406  0.22747012879892725  Uiso  ?  Ce
O1  1.0  0.6489336450704983  0.1711943552018889  0.195786624782201  Uiso  ?  O
O1  1.0  0.6448260988678142  0.17395789661727434  0.2524722121629665  Uiso  ?  O
O1  1.0  0.6282912281407473  0.19638623307553874  0.2291634062080568  Uiso  ?  O
O1  1.0  0.5949366482632178  0.17356413767385503  0.22576583516436863  Uiso  ?  O
Ce1  1.0  0.6676040767527234  0.18633542332104266  0.28762431186705956  Uiso  ?  Ce
Ce1  1.0  0.6111989705468904  0.1849100884105233  0.3197151358082453  Uiso  ?  Ce
Ce1  1.0  0.6107988671522291  0.18658816053753915  0.2560468234692847  Uiso  ?  Ce
Ce1  1.0  0.6312537719032298  0.23259228511303073  0.2869456456279543  Uiso  ?  Ce
O1  1.0  0.6311867475435677  0.1982146099104714  0.28679058676629887  Uiso  ?  O
O1  1.0  0.6146317120399486  0.22189842356130582  0.25620864403601595  Uiso  ?  O
O1  1.0  0.6157539279345332  0.218884776053601  0.319297785760015  Uiso  ?  O
O1  1.0  0.5943262683110712  0.2447074235187903  0.28770804192537475  Uiso  ?  O
O1  1.0  0.5957260511085827  0.17385379241314153  0.2847215673946275  Uiso  ?  O
O1  1.0  0.5790268083819998  0.19814779158229406  0.25899964356782323  Uiso  ?  O
O1  1.0  0.5758166816752145  0.19460590547819298  0.317559762032273  Uiso  ?  O
O1  1.0  0.5610072814860252  0.2203817431013377  0.285946964349383  Uiso  ?  O
Ce1  1.0  0.6279397821856902  0.23164126057568604  0.3511449749329977  Uiso  ?  Ce
Ce1  1.0  0.5756663412734472  0.23307305115126842  0.37775882176405656  Uiso  ?  Ce
Ce1  1.0  0.5748985559984912  0.23513492589426  0.31274775334704  Uiso  ?  Ce
O1  1.0  0.5950149653037377  0.24699895614677478  0.34716754293879837  Uiso  ?  O
O1  1.0  0.5595350229435289  0.22315731988332033  0.34867380212186005  Uiso  ?  O
O1  1.0  0.5403225177310504  0.2479713144895839  0.3173400940267399  Uiso  ?  O
O1  1.0  0.5415766805268052  0.2476012406156133  0.3775694349440442  Uiso  ?  O
Ce1  1.0  0.5592217985434331  0.18113146710363842  0.28781036390198084  Uiso  ?  Ce
O1  1.0  0.5398572231561712  0.16934021464769694  0.2582607934935762  Uiso  ?  O
O1  1.0  0.5409966430101089  0.17208002094279917  0.315733095372701  Uiso  ?  O
O1  1.0  0.5249221822686979  0.19616319381393227  0.2862843403020728  Uiso  ?  O
O1  1.0  0.4868910939637425  0.17131006960803455  0.28718333219586367  Uiso  ?  O
Ce1  1.0  0.5574911186459155  0.18488119746861437  0.3477031578878844  Uiso  ?  Ce
Ce1  1.0  0.505057762814845  0.18162169494698027  0.37981396954973345  Uiso  ?  Ce
Ce1  1.0  0.5042722802919627  0.18404994945753714  0.31646617154579315  Uiso  ?  Ce
Ce1  1.0  0.5239043058520231  0.23286975334679014  0.34732325068171105  Uiso  ?  Ce
O1  1.0  0.5255569870046388  0.1953390827017705  0.3479570681373221  Uiso  ?  O
O1  1.0  0.5072567004669826  0.21939934172288997  0.31724603120478206  Uiso  ?  O
O1  1.0  0.5048838129140805  0.21997232096170982  0.3794459561119562  Uiso  ?  O
O1  1.0  0.48735167405605156  0.24670028727558047  0.34581288340236005  Uiso  ?  O
O1  1.0  0.4873109890255086  0.1702495121219101  0.3451841761586308  Uiso  ?  O
O1  1.0  0.47105845260265555  0.19873388800211086  0.3194541421219969  Uiso  ?  O
O1  1.0  0.46813947668677797  0.19923419076874568  0.37987838443863226  Uiso  ?  O
O1  1.0  0.4531544895912655  0.22066084820889031  0.3470564718487865  Uiso  ?  O
Ce1  1.0  0.523329076724426  0.23818301862102753  0.41197534616317744  Uiso  ?  Ce
Ce1  1.0  0.47394989097870044  0.2339771326071835  0.44083390850399673  Uiso  ?  Ce
Ce1  1.0  0.46839607446418874  0.2359162955239124  0.37754496279732086  Uiso  ?  Ce
O1  1.0  0.4853247153979909  0.24672277459784386  0.4095645741805616  Uiso  ?  O
O1  1.0  0.45436442287320367  0.22220910516358053  0.40695215406408397  Uiso  ?  O
O1  1.0  0.4345489820531954  0.24604361339025163  0.38123729500985987  Uiso  ?  O
O1  1.0  0.43314398851874303  0.24653899639240756  0.4391429571531911  Uiso  ?  O
Ce1  1.0  0.4529924045961297  0.18472619184978226  0.34559970725352795  Uiso  ?  Ce
O1  1.0  0.4352369633593093  0.17207814016000117  0.3185650111038064  Uiso  ?  O
O1  1.0  0.43435892738424586  0.1735756698255473  0.37820047339219814  Uiso  ?  O
O1  1.0  0.4171438283803067  0.19824568069733542  0.3453093241283929  Uiso  ?  O
O1  1.0  0.38341398635212937  0.1705617444548322  0.3483342047937323  Uiso  ?  O
Ce1  1.0  0.4533401098043158  0.18411919294108625  0.40820978111062306  Uiso  ?  Ce
Ce1  1.0  0.40010898004756734  0.18154704886864675  0.44077237221637977  Uiso  ?  Ce
Ce1  1.0  0.4005706928385044  0.18518942882124706  0.37635417913183805  Uiso  ?  Ce
Ce1  1.0  0.41535129378604774  0.23287015957779  0.4079844516231873  Uiso  ?  Ce
O1  1.0  0.41564292045916934  0.19752004920793015  0.4077286168231777  Uiso  ?  O
O1  1.0  0.4012336982205384  0.22008964384266935  0.376960511505071  Uiso  ?  O
O1  1.0  0.4003481235210271  0.22215594406143988  0.4385848861616422  Uiso  ?  O
O1  1.0  0.38168648760130097  0.24678019417669703  0.4093655395063493  Uiso  ?  O
O1  1.0  0.37923974621583967  0.1726869697864761  0.40739065985979134  Uiso  ?  O
O1  1.0  0.36386926957912785  0.19573744678711344  0.3791799857155526  Uiso  ?  O
O1  1.0  0.3620530859815258  0.19740563724623525  0.43903771455005236  Uiso  ?  O
O1  1.0  0.3469919348936145  0.22157294495188393  0.40861443848394197  Uiso  ?  O
Ce1  1.0  0.41928765804018625  0.23734520448738716  0.47120131614537575  Uiso  ?  Ce
Ce1  1.0  0.3643699674332786  0.2319486609937243  0.4995224294102901  Uiso  ?  Ce
Ce1  1.0  0.36448126995593794  0.23090101913727323  0.43822398289048536  Uiso  ?  Ce
O1  1.0  0.37952760947168074  0.24453153553616486  0.4700316356089994  Uiso  ?  O
O1  1.0  0.34613797335338153  0.22471936114318933  0.46783902022528523  Uiso  ?  O
O1  1.0  0.33194752353670914  0.2451858362281463  0.4396244867076511  Uiso  ?  O
O1  1.0  0.3290998028180231  0.24615974015902956  0.5028158631709418  Uiso  ?  O
Ce1  1.0  0.34497367714526983  0.1860942956939477  0.409177134590108  Uiso  ?  Ce
O1  1.0  0.32737799935703493  0.17404847251624056  0.37694271928698797  Uiso  ?  O
O1  1.0  0.3287663195822392  0.16934895863149468  0.44028569976985155  Uiso  ?  O
O1  1.0  0.3120854533008569  0.1981520631463129  0.4071800791008432  Uiso  ?  O
O1  1.0  0.2746486414410651  0.17500357344080286  0.40976240638579753  Uiso  ?  O
Ce1  1.0  0.3482854020342689  0.18332833256923212  0.4699244847690591  Uiso  ?  Ce
Ce1  1.0  0.29453776113988567  0.1852550477835112  0.501350643537855  Uiso  ?  Ce
Ce1  1.0  0.29354135307417917  0.18299397813233392  0.44274053219656867  Uiso  ?  Ce
Ce1  1.0  0.3133162160854429  0.23467336740389325  0.4703765764626813  Uiso  ?  Ce
O1  1.0  0.3118838757787123  0.1939479421500596  0.46861930548166425  Uiso  ?  O
O1  1.0  0.2925580664029851  0.22151828812669191  0.44067771553482976  Uiso  ?  O
O1  1.0  0.29088056328831025  0.2209343792371856  0.5014622552654434  Uiso  ?  O
O1  1.0  0.27479365485880947  0.24589540067900698  0.4706226957729408  Uiso  ?  O
O1  1.0  0.27634204175275046  0.1731273612781665  0.46798369935402473  Uiso  ?  O
O1  1.0  0.25763924498815405  0.19601026869575594  0.4363107353969716  Uiso  ?  O
O1  1.0  0.2546403638328152  0.19646422152342247  0.5009560370932248  Uiso  ?  O
O1  1.0  0.24189842548315577  0.2204892855129284  0.4711720153032951  Uiso  ?  O
Ce1  1.0  0.30801878761255364  0.23177959839083012  0.531407568975699  Uiso  ?  Ce
Ce1  1.0  0.254493454336274  0.2316242245980652  0.5588791618866058  Uiso  ?  Ce
Ce1  1.0  0.2553743484890321  0.2337050609380534  0.5006959678647104  Uiso  ?  Ce
O1  1.0  0.2719316718798959  0.24676905050546766  0.5291495071448886  Uiso  ?  O
O1  1.0  0.2377879302246876  0.22149471447625285  0.5310919812567745  Uiso  ?  O
O1  1.0  0.2199747480467025  0.24525628791101992  0.49718932485226086  Uiso  ?  O
O1  1.0  0.2240554222662053  0.24428491172806088  0.5597268757389255  Uiso  ?  O
Ce1  1.0  0.23889480292079893  0.1851229384646556  0.4679244030884413  Uiso  ?  Ce
O1  1.0  0.22264320516393804  0.17280786184143646  0.43926492476896584  Uiso  ?  O
O1  1.0  0.22358957040603666  0.17371322543234263  0.5021204447281468  Uiso  ?  O
O1  1.0  0.2056379862241882  0.19470250268825565  0.4683215759815691  Uiso  ?  O
O1  1.0  0.17014838165526597  0.1704241254652584  0.47085471262262724  Uiso  ?  O
Ce1  1.0  0.23766310133014423  0.18450694544594617  0.5306757501157052  Uiso  ?  Ce
Ce1  1.0  0.18720693874729594  0.18466475021327544  0.5614895887089245  Uiso  ?  Ce
Ce1  1.0  0.18779404193474064  0.18307056637548688  0.4956770579724248  Uiso  ?  Ce
Ce1  1.0  0.202258760318894  0.23378954742880204  0.5315113933681175  Uiso  ?  Ce
O1  1.0  0.20174450459232532  0.19962212154367315  0.531714176795807  Uiso  ?  O
O1  1.0  0.186066922923455  0.22010757352388227  0.49744851954588837  Uiso  ?  O
O1  1.0  0.1841359718304236  0.22243996518273135  0.5603892028107239  Uiso  ?  O
O1  1.0  0.16744032791856583  0.24468018592598823  0.5313918959421704  Uiso  ?  O
O1  1.0  0.1712424458519264  0.1741725487885626  0.5300640810628584  Uiso  ?  O
Ce1  1.0  0.20488211517220326  0.2330376241400174  0.593102436098728  Uiso  ?  Ce
O1  1.0  0.16886120442212457  0.24549897030213644  0.5918593256708129  Uiso  ?  O
Ce1  1.0  0.7873582076051898  0.23319781208533286  0.13615277574492254  Uiso  ?  Ce
O1  1.0  0.7562434833857712  0.24614228706369173  0.1356675491588028  Uiso  ?  O
Ce1  1.0  0.7152085817978255  0.18287165877717937  0.13106709370846392  Uiso  ?  Ce
O1  1.0  0.7211571363101451  0.22210755743465202  0.1335907968545827  Uiso  ?  O
O1  1.0  0.6865716173479735  0.19354219664749087  0.13497569403990198  Uiso  ?  O
Ce1  1.0  0.7358861763653659  0.23473428845071242  0.1680478877788217  Uiso  ?  Ce
Ce1  1.0  0.6852101234353059  0.23592562851892943  0.19339358410850793  Uiso  ?  Ce
Ce1  1.0  0.6823084170182103  0.23541673126041673  0.13088206635641847  Uiso  ?  Ce
O1  1.0  0.7001752643581142  0.24894393809157414  0.16787026135012317  Uiso  ?  O
O1  1.0  0.6639805811564893  0.21961379947658  0.16417090225931164  Uiso  ?  O
O1  1.0  0.6475259220319568  0.2465667314065737  0.13713028462984164  Uiso  ?  O
O1  1.0  0.6470524022345705  0.2475103218025538  0.19472661898674157  Uiso  ?  O
O1  1.0  0.64739483304779  0.17174966379983986  0.13412088097804245  Uiso  ?  O
Ce1  1.0  0.6670794428357674  0.18731098722663897  0.16518634193062404  Uiso  ?  Ce
Ce1  1.0  0.6119703531679299  0.18205223329034165  0.1937851298727469  Uiso  ?  Ce
Ce1  1.0  0.6137469369224537  0.18505321129149305  0.13398369273072078  Uiso  ?  Ce
Ce1  1.0  0.6313231209272852  0.23587028692668943  0.1633537736729385  Uiso  ?  Ce
O1  1.0  0.6262554220454356  0.19800594707841906  0.16318388567363037  Uiso  ?  O
O1  1.0  0.6146286255648967  0.22148349202189846  0.13405423601224203  Uiso  ?  O
O1  1.0  0.6147958826830361  0.22053402951174214  0.19546366287609027  Uiso  ?  O
O1  1.0  0.5979250905519595  0.24879270819728466  0.1634991793392168  Uiso  ?  O
O1  1.0  0.5943993805990236  0.17012680930755278  0.16419983391839565  Uiso  ?  O
O1  1.0  0.577206077706224  0.19893079250755807  0.13286449366927364  Uiso  ?  O
O1  1.0  0.5806534990381951  0.19581129720858087  0.19521120359167365  Uiso  ?  O
O1  1.0  0.5618323994347066  0.22102998497153767  0.167581418865184  Uiso  ?  O
Ce1  1.0  0.6276195577894849  0.2346902221954009  0.22581576042393942  Uiso  ?  Ce
Ce1  1.0  0.5751717662620011  0.23538798769626054  0.25637476571035345  Uiso  ?  Ce
Ce1  1.0  0.5787416182430545  0.2332777312332957  0.19813452219597172  Uiso  ?  Ce
O1  1.0  0.5946598662401779  0.24860718499396  0.22785826140746782  Uiso  ?  O
O1  1.0  0.5593702267279176  0.22081524346589748  0.2254383708903591  Uiso  ?  O
O1  1.0  0.5409713167972686  0.24787989478868547  0.19442641859169618  Uiso  ?  O
O1  1.0  0.5420111932804464  0.2473619137462075  0.25708081934793586  Uiso  ?  O
Ce1  1.0  0.558181138757231  0.18628270256361923  0.16482698238770085  Uiso  ?  Ce
O1  1.0  0.5429348611524594  0.17572365222146782  0.13220628093182396  Uiso  ?  O
O1  1.0  0.5419834501699838  0.17245536319400456  0.1960454630460327  Uiso  ?  O
O1  1.0  0.5236917649414532  0.19739206825531108  0.1628826072382176  Uiso  ?  O
O1  1.0  0.48770421996931734  0.16918370492427262  0.16266210034794826  Uiso  ?  O
Ce1  1.0  0.5590773092939406  0.18141284853869882  0.22692997307246943  Uiso  ?  Ce
Ce1  1.0  0.5069774166421676  0.18286798757893347  0.25570175205916296  Uiso  ?  Ce
Ce1  1.0  0.5064676316189596  0.18486074357115126  0.19431748906838578  Uiso  ?  Ce
Ce1  1.0  0.5255694792498569  0.23457868538729654  0.2227848529428693  Uiso  ?  Ce
O1  1.0  0.5253302679260505  0.19653705502119917  0.227582883208949  Uiso  ?  O
O1  1.0  0.5093023255720899  0.2213248136325487  0.1937421503982242  Uiso  ?  O
O1  1.0  0.5093697540372935  0.22103051977514432  0.25392186801528127  Uiso  ?  O
O1  1.0  0.4881569930404918  0.2450837066552396  0.22602397211208053  Uiso  ?  O
O1  1.0  0.4913377274867272  0.17068640718936426  0.22457577422753544  Uiso  ?  O
O1  1.0  0.4705191736729956  0.19593172428218503  0.192061370812796  Uiso  ?  O
O1  1.0  0.47001956963975544  0.1947541263694991  0.2575254891234298  Uiso  ?  O
O1  1.0  0.4533292169986851  0.22293579620696835  0.22440565094717024  Uiso  ?  O
Ce1  1.0  0.5227033771847437  0.23114371872847098  0.28717362599035173  Uiso  ?  Ce
Ce1  1.0  0.47126684864389995  0.23395562245330354  0.3188941223362437  Uiso  ?  Ce
Ce1  1.0  0.4710408865987175  0.23424246832815324  0.2560408665079118  Uiso  ?  Ce
O1  1.0  0.48949080747010343  0.24674781305896085  0.2861361856756344  Uiso  ?  O
O1  1.0  0.4528940687681096  0.22453580347480562  0.2876925568759055  Uiso  ?  O
O1  1.0  0.43402564079825834  0.24787584402664212  0.2579661632530196  Uiso  ?  O
O1  1.0  0.4342952272757608  0.24638555720650637  0.3174603312527202  Uiso  ?  O
Ce1  1.0  0.45513943411525776  0.18506106296914054  0.22597818835880895  Uiso  ?  Ce
O1  1.0  0.4345882191671025  0.17130389439215069  0.1933430869951516  Uiso  ?  O
O1  1.0  0.434200332488556  0.16948311485369233  0.25677343544604336  Uiso  ?  O
O1  1.0  0.41609836405364053  0.1968784371987852  0.22319677918092948  Uiso  ?  O
O1  1.0  0.38168563255263344  0.17055736132900634  0.22301935210139354  Uiso  ?  O
Ce1  1.0  0.45109020289681656  0.18304815533265753  0.28855477461442347  Uiso  ?  Ce
Ce1  1.0  0.3999722045605433  0.1813907958070539  0.31486673902592527  Uiso  ?  Ce
Ce1  1.0  0.39837493259254186  0.18438874305482406  0.2558970429576714  Uiso  ?  Ce
Ce1  1.0  0.4172723268178853  0.23422657991117615  0.28786450750120246  Uiso  ?  Ce
O1  1.0  0.41706644408890065  0.1984993636847213  0.2888587709194919  Uiso  ?  O
O1  1.0  0.4006016528605349  0.22031482307705746  0.2548114683829017  Uiso  ?  O
O1  1.0  0.3990548828487282  0.22145039356504334  0.3156175455419713  Uiso  ?  O
O1  1.0  0.3846688992402933  0.2481723943895057  0.2860592274726402  Uiso  ?  O
O1  1.0  0.38364080381865656  0.17062298513519303  0.2831059419784653  Uiso  ?  O
O1  1.0  0.3652748173509225  0.19672035076308889  0.2567688765087524  Uiso  ?  O
O1  1.0  0.365177092786456  0.19731079952025996  0.3186421470536495  Uiso  ?  O
O1  1.0  0.3467402187774513  0.2215820991201248  0.2852192669248376  Uiso  ?  O
Ce1  1.0  0.41623259720959604  0.2351948617691926  0.34812566813817564  Uiso  ?  Ce
Ce1  1.0  0.36353235981624815  0.23319839302954706  0.37640857818618534  Uiso  ?  Ce
Ce1  1.0  0.36548469715008225  0.23522198105511907  0.31571178993852894  Uiso  ?  Ce
O1  1.0  0.3835533717910988  0.24507742401296856  0.346723292557068  Uiso  ?  O
O1  1.0  0.3429420170049743  0.21990704641538453  0.34862622720933073  Uiso  ?  O
O1  1.0  0.3302003939244689  0.24953122853219914  0.31466162619828464  Uiso  ?  O
O1  1.0  0.3303907613909634  0.24768444491484887  0.37783630888040964  Uiso  ?  O
Ce1  1.0  0.34779926905612796  0.18337647579237612  0.28846360026588  Uiso  ?  Ce
O1  1.0  0.3264108132158214  0.17088816970121065  0.25493811167995345  Uiso  ?  O
O1  1.0  0.3311878493406243  0.17428448631355867  0.3158968047174019  Uiso  ?  O
O1  1.0  0.31093353306388083  0.19759765304102195  0.2843090020316777  Uiso  ?  O
O1  1.0  0.2775646223444899  0.1716552884477985  0.2858023715890553  Uiso  ?  O
Ce1  1.0  0.3485716921071739  0.18542627637499423  0.34546192454512825  Uiso  ?  Ce
Ce1  1.0  0.29329531893945154  0.18205169453300155  0.37792028960501467  Uiso  ?  Ce
Ce1  1.0  0.2941422509109864  0.1836609998967488  0.31788017766629745  Uiso  ?  Ce
Ce1  1.0  0.31122144175009725  0.23370582347645116  0.3474706990763893  Uiso  ?  Ce
O1  1.0  0.31005954969823507  0.197794938752592  0.3477885793655738  Uiso  ?  O
O1  1.0  0.2951879242695011  0.22157253733096685  0.3190317631281599  Uiso  ?  O
O1  1.0  0.29337528708698324  0.2223053688352004  0.37725712286634683  Uiso  ?  O
O1  1.0  0.2769231100223613  0.24663095597904927  0.34675583973598134  Uiso  ?  O
O1  1.0  0.2765631442777975  0.17356130649781423  0.3488957409299201  Uiso  ?  O
O1  1.0  0.25902462582767755  0.19333330362404058  0.3168272045022977  Uiso  ?  O
O1  1.0  0.25752084978683  0.1984473806056348  0.3775694968423822  Uiso  ?  O
O1  1.0  0.24339713612670377  0.2207711785168478  0.3429159067781491  Uiso  ?  O
Ce1  1.0  0.3111058433817017  0.23710791991188154  0.4060348740852058  Uiso  ?  Ce
Ce1  1.0  0.25843014774620565  0.23156075919740124  0.43702751008478186  Uiso  ?  Ce
Ce1  1.0  0.2568683694539533  0.23508376766849676  0.37993338729382753  Uiso  ?  Ce
O1  1.0  0.2781629119913166  0.24686523486376233  0.40861898528001  Uiso  ?  O
O1  1.0  0.2405538433830088  0.2221893293103131  0.4086516387484682  Uiso  ?  O
O1  1.0  0.2213921659489781  0.24770213164321675  0.37318062080384407  Uiso  ?  O
O1  1.0  0.22060794621883922  0.24832514472812547  0.4369912118120336  Uiso  ?  O
Ce1  1.0  0.24078027135757138  0.1825577621631983  0.34726557000301883  Uiso  ?  Ce
O1  1.0  0.22384095179169133  0.17360558068854245  0.31501023773036324  Uiso  ?  O
O1  1.0  0.22127991580643216  0.17248933515025944  0.3757390697596948  Uiso  ?  O
O1  1.0  0.20185701127184894  0.19745083273625708  0.3462604201253276  Uiso  ?  O
O1  1.0  0.1676115611658276  0.17537378198368556  0.34751957599797073  Uiso  ?  O
Ce1  1.0  0.237883198962285  0.18564035680508764  0.4089178087625733  Uiso  ?  Ce
Ce1  1.0  0.18670433764065206  0.18686165521853795  0.4369689830209699  Uiso  ?  Ce
Ce1  1.0  0.1858890167931737  0.18059969464737904  0.38162182569302056  Uiso  ?  Ce
Ce1  1.0  0.20382860761207558  0.23205698369492103  0.40882924063895115  Uiso  ?  Ce
O1  1.0  0.20531682388313957  0.1978842841918554  0.4071343139350594  Uiso  ?  O
O1  1.0  0.1870568103385818  0.2204919652025704  0.37585472266904635  Uiso  ?  O
O1  1.0  0.18686425016312386  0.2204364392726657  0.4374220888538524  Uiso  ?  O
O1  1.0  0.16841314354584747  0.24687151969787915  0.40773460331372824  Uiso  ?  O
O1  1.0  0.1705902495165553  0.1717469385141811  0.40835022614049704  Uiso  ?  O
Ce1  1.0  0.20616621500119572  0.23356989224156424  0.4693480816243252  Uiso  ?  Ce
O1  1.0  0.17129121503081338  0.2468302358957561  0.46916321123095256  Uiso  ?  O
Ce1  1.0  0.5775013605033583  0.23370146756183732  0.1318714675611804  Uiso  ?  Ce
O1  1.0  0.5402210493121365  0.25016617739956254  0.13370060542609175  Uiso  ?  O
Ce1  1.0  0.5076443388407151  0.1838928622248153  0.1349950769213338  Uiso  ?  Ce
O1  1.0  0.5077843379139945  0.22326248291751902  0.13149861544145897  Uiso  ?  O
O1  1.0  0.4726302003918594  0.19558096174057515  0.13394632789968808  Uiso  ?  O
Ce1  1.0  0.5253396098591594  0.23495760692500414  0.16202815714092417  Uiso  ?  Ce
Ce1  1.0  0.4706255815838562  0.23555875339111293  0.1938075447108078  Uiso  ?  Ce
Ce1  1.0  0.46987055333245276  0.23327744619649948  0.13005488234740864  Uiso  ?  Ce
O1  1.0  0.4871194911676711  0.24519847841911444  0.16491221383764348  Uiso  ?  O
O1  1.0  0.45219997519204747  0.220964571958468  0.16287654932704462  Uiso  ?  O
O1  1.0  0.43793683726754923  0.24484514623251136  0.13521354620302709  Uiso  ?  O
O1  1.0  0.4359733187771061  0.24683787841077967  0.19592569179315522  Uiso  ?  O
O1  1.0  0.43650079460712554  0.1726019988094584  0.13554330803944448  Uiso  ?  O
Ce1  1.0  0.45566529688349156  0.18092231507548234  0.1641297098261537  Uiso  ?  Ce
Ce1  1.0  0.4022765766282921  0.1833124752579629  0.19653253297222267  Uiso  ?  Ce
Ce1  1.0  0.4014795126940118  0.18216129429444997  0.1325703668310991  Uiso  ?  Ce
Ce1  1.0  0.4183207920929337  0.2332757054012092  0.1627397749632865  Uiso  ?  Ce
O1  1.0  0.4182543804415042  0.1949643930955369  0.16102569245638226  Uiso  ?  O
O1  1.0  0.3999209007983338  0.22167480043443222  0.1359740886474809  Uiso  ?  O
O1  1.0  0.39961041271943826  0.22248438398753662  0.19162460297959455  Uiso  ?  O
O1  1.0  0.3825446746670849  0.2487781708808219  0.16187268418270329  Uiso  ?  O
O1  1.0  0.3818768548132156  0.1718417055208764  0.16176310494705345  Uiso  ?  O
O1  1.0  0.3670193011848065  0.19759268538804428  0.131280193389165  Uiso  ?  O
O1  1.0  0.3625905128573121  0.19655819101635524  0.1947570266705817  Uiso  ?  O
O1  1.0  0.347667879621895  0.2230702025189152  0.16117048000913584  Uiso  ?  O
Ce1  1.0  0.41811657790604145  0.23442550326041145  0.22519730282213685  Uiso  ?  Ce
Ce1  1.0  0.36478705400720773  0.23292838579418187  0.25563698821740427  Uiso  ?  Ce
Ce1  1.0  0.36830235402220085  0.2335092299784637  0.19291964348556503  Uiso  ?  Ce
O1  1.0  0.384830937054579  0.2450363289455435  0.22468462120577656  Uiso  ?  O
O1  1.0  0.3471295213098177  0.2199579008564619  0.22547491911031528  Uiso  ?  O
O1  1.0  0.3302344608705118  0.24702369049688233  0.1919287764847348  Uiso  ?  O
O1  1.0  0.33040437715085297  0.24737724590144575  0.25777534437596733  Uiso  ?  O
Ce1  1.0  0.3473462410089767  0.18392289252512065  0.16602767567285925  Uiso  ?  Ce
O1  1.0  0.3313836747854714  0.1750832569451019  0.133892699325738  Uiso  ?  O
O1  1.0  0.3292952011508749  0.17131068132474  0.19550916820571704  Uiso  ?  O
O1  1.0  0.31254986460175427  0.1962533330192776  0.1613317431013445  Uiso  ?  O
O1  1.0  0.27564817330591695  0.1723484945119301  0.16091242679494286  Uiso  ?  O
Ce1  1.0  0.3509524867378732  0.1829226429043188  0.2207772710845565  Uiso  ?  Ce
Ce1  1.0  0.2948623209645213  0.18646261980286494  0.25484028618885196  Uiso  ?  Ce
Ce1  1.0  0.29330210523706746  0.18586181551070086  0.194809891703081  Uiso  ?  Ce
Ce1  1.0  0.31011564236138844  0.2333430873241162  0.2254023384080816  Uiso  ?  Ce
O1  1.0  0.3123183700132303  0.19618755165641086  0.22471615442151202  Uiso  ?  O
O1  1.0  0.29447833073924573  0.22073205207492366  0.19372463944349097  Uiso  ?  O
O1  1.0  0.29569486173788956  0.221002158261813  0.25288604656086416  Uiso  ?  O
O1  1.0  0.27855834304452737  0.2458828545348271  0.2253050472887943  Uiso  ?  O
O1  1.0  0.2767909776512059  0.17074196352706822  0.2239656469573733  Uiso  ?  O
O1  1.0  0.26049781905660074  0.1977530812560721  0.19375409425542087  Uiso  ?  O
O1  1.0  0.2587841990027837  0.1956204794318282  0.2538020122429374  Uiso  ?  O
O1  1.0  0.241522507456319  0.22254411516434444  0.22348604011775763  Uiso  ?  O
Ce1  1.0  0.3125541709147351  0.22976691756740303  0.2865116680269508  Uiso  ?  Ce
Ce1  1.0  0.2578861877919258  0.2354770671472862  0.31567015945416754  Uiso  ?  Ce
Ce1  1.0  0.2583284231551225  0.23508188084133075  0.2534654854796108  Uiso  ?  Ce
O1  1.0  0.2761705895608505  0.24728264365547203  0.2844069655122777  Uiso  ?  O
O1  1.0  0.24157916458287962  0.2222250870887396  0.28636194282526617  Uiso  ?  O
O1  1.0  0.22144108555007896  0.2432231121310763  0.2540124313357206  Uiso  ?  O
O1  1.0  0.2227722337120315  0.24774455261434447  0.31569020562368255  Uiso  ?  O
Ce1  1.0  0.2399149873317576  0.18473389770144627  0.2226488359792897  Uiso  ?  Ce
O1  1.0  0.2243110494991486  0.17036584877735933  0.19533351628793708  Uiso  ?  O
O1  1.0  0.22209040296300997  0.173656726325202  0.254879150605614  Uiso  ?  O
O1  1.0  0.20474549326521133  0.1969011167431245  0.22229827399237306  Uiso  ?  O
O1  1.0  0.17064447443211353  0.17479439757966586  0.22461880241606516  Uiso  ?  O
Ce1  1.0  0.2395212645139614  0.18587496045903096  0.285074475544753  Uiso  ?  Ce
Ce1  1.0  0.1846697514520876  0.1822770468135169  0.3165244821618327  Uiso  ?  Ce
Ce1  1.0  0.18669059737998234  0.1850590955745222  0.25197795124630357  Uiso  ?  Ce
Ce1  1.0  0.20469305137554158  0.23378933475423574  0.28600141394939527  Uiso  ?  Ce
O1  1.0  0.20238982177704054  0.19665085572741844  0.28531445421596746  Uiso  ?  O
O1  1.0  0.1875584925395842  0.2241663109755407  0.2561842625292668  Uiso  ?  O
O1  1.0  0.1880727851671625  0.22245195630458559  0.3148050528832772  Uiso  ?  O
O1  1.0  0.17012430738364884  0.24730189076965664  0.2853956015043231  Uiso  ?  O
O1  1.0  0.17107508579386282  0.17228238004857976  0.2839027976601675  Uiso  ?  O
Ce1  1.0  0.20925432318373566  0.23554831415993288  0.34624247945155323  Uiso  ?  Ce
O1  1.0  0.17053502471428572  0.24699324644035137  0.34594477358234627  Uiso  ?  O
Ce1  1.0  0.3649871203952634  0.23204953469950335  0.13388823520721818  Uiso  ?  Ce
O1  1.0  0.32888466514934206  0.2477521621949871  0.13336877516163745  Uiso  ?  O
Ce1  1.0  0.294487712610785  0.18422004098189612  0.13083170734221095  Uiso  ?  Ce
O1  1.0  0.2978336060798519  0.2203600765220596  0.133507602551829  Uiso  ?  O
O1  1.0  0.25920810636696157  0.198167224935935  0.1325826785301641  Uiso  ?  O
Ce1  1.0  0.31287806618483  0.23522974132963342  0.16368755244994249  Uiso  ?  Ce
Ce1  1.0  0.26005769085851227  0.2339384485689316  0.1938473530305276  Uiso  ?  Ce
Ce1  1.0  0.2598679809958031  0.23514291271272258  0.13155102857776527  Uiso  ?  Ce
O1  1.0  0.27539855019131443  0.24667667486048506  0.16453408997256766  Uiso  ?  O
O1  1.0  0.2401522318917432  0.2229031448370013  0.16276021873124605  Uiso  ?  O
O1  1.0  0.2207975913222752  0.24908592794393736  0.12954424031459705  Uiso  ?  O
O1  1.0  0.22353908369714512  0.24802380926511272  0.19120041591443998  Uiso  ?  O
O1  1.0  0.22436953880607047  0.17407163825574223  0.13424293179464897  Uiso  ?  O
Ce1  1.0  0.24111433445246952  0.1840450110201961  0.16346959871855546  Uiso  ?  Ce
Ce1  1.0  0.18516294326683347  0.18258718184394393  0.19302722775924175  Uiso  ?  Ce
Ce1  1.0  0.18771878410518575  0.18297500633961394  0.13171671692144327  Uiso  ?  Ce
Ce1  1.0  0.20757051935123047  0.23343976064550095  0.16463593624942177  Uiso  ?  Ce
O1  1.0  0.2014260542388653  0.199496033205555  0.1642001718390533  Uiso  ?  O
O1  1.0  0.1840287800556493  0.2178647050387306  0.13295332872230975  Uiso  ?  O
O1  1.0  0.18676231928709994  0.22179464915629707  0.19247657093479986  Uiso  ?  O
O1  1.0  0.17014942664681373  0.24835776926303824  0.16101106976054314  Uiso  ?  O
O1  1.0  0.17212638651821255  0.1724811293448617  0.1627775126140375  Uiso  ?  O
Ce1  1.0  0.20534966435816893  0.23493367239594512  0.2247212680785854  Uiso  ?  Ce
O1  1.0  0.1669277068403223  0.24679338191181213  0.22133197274063884  Uiso  ?  O
