data_global
_audit_creation_method 'Generated by Python Script'

_symmetry_space_group_name_H-M 'P 1'
_symmetry_Int_Tables_number 1
_symmetry_cell_setting triclinic
loop_
_symmetry_equiv_pos_as_xyz
  'x, y, z'

_cell_length_a    62.3166178713643
_cell_length_b    62.3166178713643
_cell_length_c    62.3166178713643
_cell_angle_alpha 90.0
_cell_angle_beta  90.0
_cell_angle_gamma 90.0

loop_
_atom_site_label
_atom_site_occupancy
_atom_site_fract_x
_atom_site_fract_y
_atom_site_fract_z
_atom_site_adp_type
_atom_site_U_iso_or_equiv
_atom_site_type_symbol
Pt1  1.0  0.26858028487119495  0.4590091628461594  0.43121586556038904  Uiso  ?  Pt
Pt1  1.0  0.2770612393008703  0.49562175766190447  0.4549366190619845  Uiso  ?  Pt
Pt1  1.0  0.2784484575317532  0.49549025204544517  0.40939743705178894  Uiso  ?  Pt
Pt1  1.0  0.31774588811885746  0.49538992859868847  0.3900142222581356  Uiso  ?  Pt
Pt1  1.0  0.3040732283552262  0.4583933527178242  0.41093613901813  Uiso  ?  Pt
Pt1  1.0  0.31945498852543697  0.49775782762671655  0.4345193759625158  Uiso  ?  Pt
Pt1  1.0  0.3440007531498573  0.4529044186394375  0.3858645011871508  Uiso  ?  Pt
Pt1  1.0  0.35698713910106145  0.493331963278479  0.4114061669887011  Uiso  ?  Pt
Pt1  1.0  0.35590797564571425  0.4947241983040206  0.3652345548693365  Uiso  ?  Pt
Pt1  1.0  0.3840636412037989  0.4560046604501362  0.366031830781481  Uiso  ?  Pt
Pt1  1.0  0.394182110831729  0.4935882167795539  0.38591239481657585  Uiso  ?  Pt
Pt1  1.0  0.2688509685525008  0.458605465040058  0.47976236810647904  Uiso  ?  Pt
Pt1  1.0  0.2656859920217883  0.4576276353084024  0.5205602677789882  Uiso  ?  Pt
Pt1  1.0  0.28046171660528524  0.4947853914650836  0.5442028241883499  Uiso  ?  Pt
Pt1  1.0  0.27947988084289704  0.49200756422815395  0.49899662209982537  Uiso  ?  Pt
Pt1  1.0  0.31880988172754593  0.4944005659595774  0.47669128331530186  Uiso  ?  Pt
Pt1  1.0  0.30143865492734795  0.46037293721524986  0.5006897011854499  Uiso  ?  Pt
Pt1  1.0  0.31872350553122847  0.4912481673918916  0.5228558554501727  Uiso  ?  Pt
Pt1  1.0  0.3051173519663126  0.4597505843821581  0.4565465769605822  Uiso  ?  Pt
Pt1  1.0  0.34384432909560936  0.4572099727211476  0.43569375891900036  Uiso  ?  Pt
Pt1  1.0  0.34173318229497845  0.45740522184608895  0.47692137089669945  Uiso  ?  Pt
Pt1  1.0  0.3580412741315838  0.49391000186990436  0.49883889330612313  Uiso  ?  Pt
Pt1  1.0  0.3545185352089512  0.4967822070524051  0.4537537647643965  Uiso  ?  Pt
Pt1  1.0  0.39746960835988954  0.49511048907284066  0.43403503402743066  Uiso  ?  Pt
Pt1  1.0  0.3806503311312319  0.46188295425079534  0.4524489217726528  Uiso  ?  Pt
Pt1  1.0  0.3948405473353161  0.49406175118884804  0.4771309592883948  Uiso  ?  Pt
Pt1  1.0  0.38030751868485513  0.45674965624841235  0.41003521780251523  Uiso  ?  Pt
Pt1  1.0  0.42193517845996203  0.4588612064473021  0.3860233348842119  Uiso  ?  Pt
Pt1  1.0  0.42166613471548825  0.459081780601233  0.4331586541273652  Uiso  ?  Pt
Pt1  1.0  0.43347558185869867  0.4954993078260574  0.4552031699555911  Uiso  ?  Pt
Pt1  1.0  0.43480509946940155  0.4955483048936217  0.41023409446234144  Uiso  ?  Pt
Pt1  1.0  0.45856355731687753  0.4583636801715947  0.41052314250435024  Uiso  ?  Pt
Pt1  1.0  0.47244821959114663  0.49513619877528264  0.43374488255144616  Uiso  ?  Pt
Pt1  1.0  0.26868752472585355  0.456120507084381  0.563541335864023  Uiso  ?  Pt
Pt1  1.0  0.2787054193931011  0.4910711194344003  0.5882027328190472  Uiso  ?  Pt
Pt1  1.0  0.315588356963555  0.49440787004957953  0.5662536803126653  Uiso  ?  Pt
Pt1  1.0  0.3035504003230474  0.4603179876634509  0.5902264431031741  Uiso  ?  Pt
Pt1  1.0  0.31871263815479883  0.49341428414381866  0.6105568259736777  Uiso  ?  Pt
Pt1  1.0  0.3052471711388659  0.460166687213076  0.5444102741214423  Uiso  ?  Pt
Pt1  1.0  0.3429212289627665  0.4591306791811861  0.5228425375713774  Uiso  ?  Pt
Pt1  1.0  0.34050910844645005  0.457963775060681  0.5671287450436567  Uiso  ?  Pt
Pt1  1.0  0.35225044845048725  0.4940399907931047  0.5905559373480341  Uiso  ?  Pt
Pt1  1.0  0.3556899726248386  0.49424020044340566  0.5448666986985438  Uiso  ?  Pt
Pt1  1.0  0.39189680098723195  0.4963948985495511  0.5208067160714955  Uiso  ?  Pt
Pt1  1.0  0.38157460300695106  0.4595290108849134  0.5427875650967543  Uiso  ?  Pt
Pt1  1.0  0.39361431395946467  0.4989450303410194  0.5676596936187989  Uiso  ?  Pt
Pt1  1.0  0.3816295262289095  0.46056481183805353  0.49925001538861546  Uiso  ?  Pt
Pt1  1.0  0.4187999649220629  0.4584588638153608  0.47820291779981644  Uiso  ?  Pt
Pt1  1.0  0.42153418523247954  0.45736203608683906  0.5192491859515544  Uiso  ?  Pt
Pt1  1.0  0.432419256160938  0.4961416138056115  0.5459581574939355  Uiso  ?  Pt
Pt1  1.0  0.4311522353634201  0.494286832141238  0.49945475651745525  Uiso  ?  Pt
Pt1  1.0  0.47092295058127936  0.49596482711647294  0.4785168445943685  Uiso  ?  Pt
Pt1  1.0  0.45809986838779454  0.4580265548588813  0.5012844713218811  Uiso  ?  Pt
Pt1  1.0  0.47166088725474403  0.4937629328443114  0.5245088533638703  Uiso  ?  Pt
Pt1  1.0  0.4606959493433474  0.4578223127895078  0.4576243541372906  Uiso  ?  Pt
Pt1  1.0  0.4985555859954935  0.4538362328923339  0.43740993785619564  Uiso  ?  Pt
Pt1  1.0  0.49962960014136537  0.45845447938765355  0.4781040764005136  Uiso  ?  Pt
Pt1  1.0  0.5094251862155186  0.4939532911754484  0.4993454832628323  Uiso  ?  Pt
Pt1  1.0  0.5116273212585595  0.49548859249610644  0.45771071021557147  Uiso  ?  Pt
Pt1  1.0  0.3440415127657758  0.4593907778300772  0.6127691105611891  Uiso  ?  Pt
Pt1  1.0  0.35392572574002984  0.49426472232163043  0.6342771730145007  Uiso  ?  Pt
Pt1  1.0  0.39604283137924756  0.49853912627710684  0.6101109935497169  Uiso  ?  Pt
Pt1  1.0  0.38495457871372324  0.4574156369853886  0.6349943192391453  Uiso  ?  Pt
Pt1  1.0  0.3815519856918264  0.45679545547834816  0.5898868322662817  Uiso  ?  Pt
Pt1  1.0  0.4192053726338113  0.4565322008336072  0.5679709881017575  Uiso  ?  Pt
Pt1  1.0  0.4188808809396164  0.4609317222656112  0.611366767904701  Uiso  ?  Pt
Pt1  1.0  0.43297392208193053  0.4966269707610872  0.5906090291628837  Uiso  ?  Pt
Pt1  1.0  0.47204433915247046  0.4990279824600733  0.5659224358247998  Uiso  ?  Pt
Pt1  1.0  0.45882370552158974  0.4563500724755046  0.5896681055650143  Uiso  ?  Pt
Pt1  1.0  0.4566981670099113  0.45887906537904166  0.5456645342490914  Uiso  ?  Pt
Pt1  1.0  0.4953171143309745  0.4587599942072792  0.5231472660685011  Uiso  ?  Pt
Pt1  1.0  0.4957030339672017  0.45628316864010104  0.5683941363366333  Uiso  ?  Pt
Pt1  1.0  0.5080277293458659  0.49608798369972823  0.5447739687080955  Uiso  ?  Pt
Pt1  1.0  0.2936701729561672  0.5305022727862858  0.3895317626047147  Uiso  ?  Pt
Pt1  1.0  0.33064871137322094  0.5303360398167123  0.3655058303659932  Uiso  ?  Pt
Pt1  1.0  0.29457632324337796  0.5307587433761597  0.4343560649435253  Uiso  ?  Pt
Pt1  1.0  0.29233177697461404  0.5325790091982007  0.47907787613976294  Uiso  ?  Pt
Pt1  1.0  0.32796140186984063  0.5291791254647018  0.453492576932329  Uiso  ?  Pt
Pt1  1.0  0.33106292381809954  0.5319366602143897  0.4111968290959123  Uiso  ?  Pt
Pt1  1.0  0.3669389987453486  0.5298285513375721  0.3922217628920726  Uiso  ?  Pt
Pt1  1.0  0.36963997761806977  0.5293234507476481  0.4336814739200566  Uiso  ?  Pt
Pt1  1.0  0.4095507977205431  0.5296845272980221  0.4110505939980995  Uiso  ?  Pt
Pt1  1.0  0.2934594514468231  0.5273734478718424  0.5236650417742849  Uiso  ?  Pt
Pt1  1.0  0.2917255490557067  0.5313501253972814  0.5665943415348412  Uiso  ?  Pt
Pt1  1.0  0.330863559129857  0.5285790046520521  0.548220793638322  Uiso  ?  Pt
Pt1  1.0  0.3277360754822991  0.5309473449677519  0.5015711295453646  Uiso  ?  Pt
Pt1  1.0  0.3694425849293911  0.5294896849822407  0.4771278878770873  Uiso  ?  Pt
Pt1  1.0  0.3666804578035981  0.5299056232040615  0.5190888278613568  Uiso  ?  Pt
Pt1  1.0  0.4072527060285179  0.5319182624798683  0.5017146563670543  Uiso  ?  Pt
Pt1  1.0  0.4086985733147585  0.5314036352856052  0.45501037469135286  Uiso  ?  Pt
Pt1  1.0  0.4486106453956689  0.5293229112143201  0.43292325735588455  Uiso  ?  Pt
Pt1  1.0  0.44622594704864044  0.530216399980135  0.47990130925336116  Uiso  ?  Pt
Pt1  1.0  0.4834988258187703  0.5315102247402479  0.4545753391524963  Uiso  ?  Pt
Pt1  1.0  0.2899271086040467  0.5308964925682862  0.6130124599066357  Uiso  ?  Pt
Pt1  1.0  0.3320999026037655  0.5292657542256095  0.6349411064121693  Uiso  ?  Pt
Pt1  1.0  0.3311248534728938  0.5340102332332127  0.5892051342750269  Uiso  ?  Pt
Pt1  1.0  0.3705137281383418  0.5310509175992318  0.569815123619781  Uiso  ?  Pt
Pt1  1.0  0.36865467963096654  0.5293321104876224  0.6120067574366108  Uiso  ?  Pt
Pt1  1.0  0.40775396590744767  0.5308580090960895  0.5884415145675513  Uiso  ?  Pt
Pt1  1.0  0.4077148288405652  0.5319241474218627  0.5437034212952034  Uiso  ?  Pt
Pt1  1.0  0.44709196053072486  0.5333815791719525  0.5240550566027448  Uiso  ?  Pt
Pt1  1.0  0.4478905931016921  0.534740575020735  0.5641876789439967  Uiso  ?  Pt
Pt1  1.0  0.48596452793451944  0.5268956649654474  0.5458819206107172  Uiso  ?  Pt
Pt1  1.0  0.4851136884922064  0.5324192248374426  0.4993953618859183  Uiso  ?  Pt
Pt1  1.0  0.5212332054904647  0.5320542165423235  0.4750913002897949  Uiso  ?  Pt
Pt1  1.0  0.5206071101913221  0.5297905806986593  0.5224609025456566  Uiso  ?  Pt
Pt1  1.0  0.30478115886338103  0.567702177497798  0.4137246546595644  Uiso  ?  Pt
Pt1  1.0  0.30956224561989343  0.5697655064511786  0.3655859519018827  Uiso  ?  Pt
Pt1  1.0  0.3444418746801901  0.5686163744493649  0.38853179596815623  Uiso  ?  Pt
Pt1  1.0  0.30312319330480975  0.568816841482169  0.49883352419187155  Uiso  ?  Pt
Pt1  1.0  0.3052792155805155  0.5672814591912767  0.45602925287764595  Uiso  ?  Pt
Pt1  1.0  0.342808307780471  0.5660968470331321  0.4351331686098647  Uiso  ?  Pt
Pt1  1.0  0.3405753276648713  0.5693799727853449  0.4773857408271954  Uiso  ?  Pt
Pt1  1.0  0.3792514379629105  0.5681156306081149  0.45700230392311814  Uiso  ?  Pt
Pt1  1.0  0.38225677213434456  0.5677047204399795  0.41124289042161105  Uiso  ?  Pt
Pt1  1.0  0.42277748972830004  0.56863094643372  0.43445280625253496  Uiso  ?  Pt
Pt1  1.0  0.30462571447927794  0.5662773623544645  0.5861061566101718  Uiso  ?  Pt
Pt1  1.0  0.3074225752865034  0.5632143851373344  0.5457646395293058  Uiso  ?  Pt
Pt1  1.0  0.34628762455223805  0.566238914427987  0.5212266402389195  Uiso  ?  Pt
Pt1  1.0  0.34502547284149077  0.5687509254414022  0.56572210219674  Uiso  ?  Pt
Pt1  1.0  0.38109710330250246  0.5677838993156841  0.5434548198954451  Uiso  ?  Pt
Pt1  1.0  0.38009822769667156  0.5690539559302682  0.4983963162316459  Uiso  ?  Pt
Pt1  1.0  0.4213034324872198  0.5620867447994843  0.47611344921632504  Uiso  ?  Pt
Pt1  1.0  0.42104292157799655  0.5661276800527818  0.5219621892676899  Uiso  ?  Pt
Pt1  1.0  0.45719250161497604  0.5679470904005205  0.4987747285068618  Uiso  ?  Pt
Pt1  1.0  0.4565444930515588  0.5652166658638096  0.45441714228459373  Uiso  ?  Pt
Pt1  1.0  0.4977723007564262  0.570202044848584  0.4775242540371846  Uiso  ?  Pt
Pt1  1.0  0.3038300619013531  0.568026571716166  0.6315644772422647  Uiso  ?  Pt
Pt1  1.0  0.3418112516170341  0.5662407424818193  0.6103807505722558  Uiso  ?  Pt
Pt1  1.0  0.37794963303372664  0.566050131729963  0.5919323468090875  Uiso  ?  Pt
Pt1  1.0  0.41977909202747477  0.5674786938204657  0.566291218383897  Uiso  ?  Pt
Pt1  1.0  0.4560534883875528  0.5667564459985461  0.5447635397986956  Uiso  ?  Pt
Pt1  1.0  0.4979994536730486  0.5654615532901855  0.5233294505979534  Uiso  ?  Pt
Pt1  1.0  0.5379102284572693  0.5648401509931105  0.5010821426817408  Uiso  ?  Pt
O1  1.0  0.17640498029449955  0.36185922608932497  0.2903578426547775  Uiso  ?  O
O1  1.0  0.1900635104993864  0.3900331449172838  0.26623163857736704  Uiso  ?  O
O1  1.0  0.20792212381058459  0.42367919137051274  0.2391730662866632  Uiso  ?  O
Ce1  1.0  0.19025093023929565  0.38999448131823816  0.22729858444447526  Uiso  ?  Ce
O1  1.0  0.17241582579607553  0.35884639357616127  0.21370579141777496  Uiso  ?  O
O1  1.0  0.21097808167430748  0.36446047959361266  0.24013090273129775  Uiso  ?  O
O1  1.0  0.22298576401909423  0.392007823316551  0.21253514001937454  Uiso  ?  O
O1  1.0  0.24241290473113528  0.3624727143524269  0.1883141408488026  Uiso  ?  O
Ce1  1.0  0.22407931707165357  0.39440097636603416  0.17701097390830806  Uiso  ?  Ce
O1  1.0  0.2593439961689458  0.3952423009690074  0.16545197996033137  Uiso  ?  O
Ce1  1.0  0.25812162806993544  0.3976943070794925  0.12673106837124873  Uiso  ?  Ce
O1  1.0  0.27762100722774713  0.36589497957723255  0.13737648279690423  Uiso  ?  O
O1  1.0  0.16097881409599912  0.3855069204465547  0.4660643117503791  Uiso  ?  O
O1  1.0  0.18137882223107984  0.35716191763516314  0.43898523202499773  Uiso  ?  O
O1  1.0  0.1739880247585304  0.4173192412414065  0.44028330209495825  Uiso  ?  O
O1  1.0  0.19418086007253296  0.3908374301152063  0.41384436260893465  Uiso  ?  O
O1  1.0  0.17445716517400203  0.42281058295553653  0.36931725535724563  Uiso  ?  O
O1  1.0  0.20654996033202425  0.4178633174871954  0.39058780847505187  Uiso  ?  O
Ce1  1.0  0.17561952401615505  0.3579866992487246  0.3290426201730742  Uiso  ?  Ce
Ce1  1.0  0.19299584888170923  0.388192547447391  0.3777559790459696  Uiso  ?  Ce
O1  1.0  0.17319293631800237  0.3600977185938488  0.36531988337624605  Uiso  ?  O
O1  1.0  0.2107384905304779  0.3603259576435138  0.3903021989090878  Uiso  ?  O
O1  1.0  0.1902402609384167  0.3879224879321599  0.3404716413867176  Uiso  ?  O
O1  1.0  0.22750533555777738  0.39201254287112147  0.36438056846340466  Uiso  ?  O
O1  1.0  0.21048691073267714  0.36130773133555016  0.31261860761381244  Uiso  ?  O
O1  1.0  0.2456073391034956  0.36156068895650517  0.3354884488516117  Uiso  ?  O
Ce1  1.0  0.1727794079048906  0.42119294147788483  0.3266527818027766  Uiso  ?  Ce
Ce1  1.0  0.2038373686390757  0.42275397970239137  0.27724727298779367  Uiso  ?  Ce
Ce1  1.0  0.22563563305167192  0.3928659004579835  0.3278277516458561  Uiso  ?  Ce
O1  1.0  0.20537726431351733  0.42124316022331093  0.31363908898325576  Uiso  ?  O
O1  1.0  0.22473261458877092  0.3918993704669141  0.2883381529877301  Uiso  ?  O
O1  1.0  0.25944687070296496  0.39485143609646434  0.31475996136335244  Uiso  ?  O
Ce1  1.0  0.21045853146876695  0.36200968513414633  0.278581744203752  Uiso  ?  Ce
Ce1  1.0  0.24225154093684198  0.36354944647232007  0.22625092681535183  Uiso  ?  Ce
Ce1  1.0  0.2639093574533885  0.39515084452187754  0.2748000920476782  Uiso  ?  Ce
O1  1.0  0.24185673780169353  0.3647613530874278  0.26622798779726803  Uiso  ?  O
O1  1.0  0.2803229875768487  0.36520779004876325  0.2867442927944776  Uiso  ?  O
O1  1.0  0.25934316133471097  0.39467609870430803  0.23758701484690312  Uiso  ?  O
O1  1.0  0.29468770648626275  0.3980498535355649  0.26206189452860507  Uiso  ?  O
O1  1.0  0.27960983273910006  0.3674908529010579  0.21061140090827135  Uiso  ?  O
O1  1.0  0.31371896456162524  0.3689922280779887  0.23790056957893937  Uiso  ?  O
Ce1  1.0  0.29525885986902406  0.39886890323886187  0.22207574281634454  Uiso  ?  Ce
O1  1.0  0.29365024543582424  0.3959449852644857  0.18615630149938847  Uiso  ?  O
O1  1.0  0.3306766573852104  0.3999179761992387  0.20868706423228672  Uiso  ?  O
O1  1.0  0.3326504728990887  0.336335280130524  0.20788562096434732  Uiso  ?  O
Ce1  1.0  0.27856885301792267  0.36695285547995393  0.17603035416189344  Uiso  ?  Ce
Ce1  1.0  0.3111362928982054  0.3689182064312212  0.1259166674314942  Uiso  ?  Ce
Ce1  1.0  0.3329841488694667  0.340887714490876  0.17284792727740397  Uiso  ?  Ce
Ce1  1.0  0.32765627717613094  0.3988116888009143  0.1725478494150217  Uiso  ?  Ce
O1  1.0  0.31254049676093876  0.3688035102610597  0.1622879029165553  Uiso  ?  O
O1  1.0  0.35003286773971204  0.37031249224734736  0.18612736124696913  Uiso  ?  O
O1  1.0  0.32715141618769805  0.4018638345301823  0.13761550972588116  Uiso  ?  O
O1  1.0  0.3628670066306408  0.4013523576362181  0.15889148037762632  Uiso  ?  O
O1  1.0  0.33071554885251075  0.3392717322193472  0.13643955431264043  Uiso  ?  O
O1  1.0  0.3676909680394613  0.341308017104126  0.1605936343570632  Uiso  ?  O
O1  1.0  0.38224738493192884  0.3726886464838714  0.13611014804305524  Uiso  ?  O
Ce1  1.0  0.36440810962841647  0.40178934418336076  0.12032465565741064  Uiso  ?  Ce
Ce1  1.0  0.36599467879609066  0.3434844817758133  0.12287947792354476  Uiso  ?  Ce
O1  1.0  0.1641165226572992  0.3831821702918012  0.617846066458409  Uiso  ?  O
O1  1.0  0.17981374310229511  0.35276968449527546  0.5906507208057387  Uiso  ?  O
Ce1  1.0  0.1612928508536963  0.38533554279175614  0.5790420142304866  Uiso  ?  Ce
O1  1.0  0.17638104642213417  0.41595661117299  0.5916016269032649  Uiso  ?  O
O1  1.0  0.16145756371003395  0.38487497541973176  0.5405235000799836  Uiso  ?  O
O1  1.0  0.1949681043873497  0.3887925347937353  0.5657901531007642  Uiso  ?  O
O1  1.0  0.1764375730954568  0.4174583750909297  0.5170153994481987  Uiso  ?  O
O1  1.0  0.21157430695753315  0.41932759741607  0.5412611690694549  Uiso  ?  O
Ce1  1.0  0.1773917735130702  0.3563851786217854  0.47824125090122127  Uiso  ?  Ce
Ce1  1.0  0.1962608339423931  0.3898078690260616  0.5269542820695103  Uiso  ?  Ce
O1  1.0  0.17842299530507313  0.3545566538076311  0.515974063561917  Uiso  ?  O
O1  1.0  0.21587293212866712  0.35580783058971804  0.538759040728923  Uiso  ?  O
O1  1.0  0.1948049447216943  0.39012465140493174  0.4880970399644317  Uiso  ?  O
O1  1.0  0.23131130336439606  0.39037206239660177  0.5141573797928346  Uiso  ?  O
O1  1.0  0.21339472637673243  0.3592537139224367  0.4659439483923821  Uiso  ?  O
O1  1.0  0.24971275865878118  0.36332912574166953  0.486660657958411  Uiso  ?  O
Ce1  1.0  0.17671935819153906  0.41822040608810257  0.4789992066016187  Uiso  ?  Ce
Ce1  1.0  0.20869508974322312  0.41972060889594054  0.4275788923027254  Uiso  ?  Ce
Ce1  1.0  0.22898384799309046  0.3917042520941144  0.47885923812850073  Uiso  ?  Ce
O1  1.0  0.20852081272525447  0.4238261745012499  0.4672310002997973  Uiso  ?  O
O1  1.0  0.24635193225141255  0.42376263784595275  0.49036093361001265  Uiso  ?  O
O1  1.0  0.22985471769310603  0.3924137039017332  0.4377912894466522  Uiso  ?  O
O1  1.0  0.26401186281001593  0.3935748803751159  0.46349276612336104  Uiso  ?  O
O1  1.0  0.24489294658409047  0.4202157309771964  0.41490814593332004  Uiso  ?  O
Ce1  1.0  0.21224130391322052  0.36158296552506225  0.4268336767174662  Uiso  ?  Ce
Ce1  1.0  0.2464053661741589  0.36024994890748224  0.3765139251315866  Uiso  ?  Ce
Ce1  1.0  0.2645184684622017  0.39332951974141017  0.4277923752067858  Uiso  ?  Ce
O1  1.0  0.24729050571977138  0.36048242353791665  0.41276911348208956  Uiso  ?  O
O1  1.0  0.2819252999183424  0.36308992352764957  0.43587564369792214  Uiso  ?  O
O1  1.0  0.2656564025824201  0.3937499860662581  0.3894058894122119  Uiso  ?  O
O1  1.0  0.2967304215124375  0.39459542308008205  0.4101733981992873  Uiso  ?  O
O1  1.0  0.28327081277531196  0.3643295001128067  0.36383664988357967  Uiso  ?  O
O1  1.0  0.3169261159840311  0.36457304980171157  0.3881479535690221  Uiso  ?  O
Ce1  1.0  0.2996130019622117  0.39481939375350583  0.37846596646805947  Uiso  ?  Ce
O1  1.0  0.2961849488066236  0.39672671403035736  0.3389980766481972  Uiso  ?  O
O1  1.0  0.33332777402093855  0.39852026774403415  0.36343338076889026  Uiso  ?  O
Ce1  1.0  0.2808363509283586  0.36335098450252334  0.3263962549949676  Uiso  ?  Ce
Ce1  1.0  0.3165158793907424  0.36863314890430615  0.2744005911615661  Uiso  ?  Ce
Ce1  1.0  0.33114604309936746  0.40081369781315196  0.32616394585844666  Uiso  ?  Ce
O1  1.0  0.31528144323683444  0.3658709595229812  0.31288292615339014  Uiso  ?  O
O1  1.0  0.3529564097357085  0.3681058160382755  0.33802019707585823  Uiso  ?  O
O1  1.0  0.33327820605154285  0.3988861132326834  0.28403103380651573  Uiso  ?  O
O1  1.0  0.3686595286503083  0.3984509172141884  0.3110316064388393  Uiso  ?  O
O1  1.0  0.3697486202044285  0.33853701921269647  0.3095866699451128  Uiso  ?  O
O1  1.0  0.3516305283091331  0.37113422777321575  0.26038476155621143  Uiso  ?  O
O1  1.0  0.38447754065892087  0.3696990889156528  0.2861290960686561  Uiso  ?  O
Ce1  1.0  0.36857854529242173  0.39869416523076856  0.27055979376430844  Uiso  ?  Ce
O1  1.0  0.36718186621998183  0.40216187470275694  0.2372269961708397  Uiso  ?  O
O1  1.0  0.39935036868622137  0.4031758246456631  0.26325243179898433  Uiso  ?  O
Ce1  1.0  0.36921223451625235  0.34062982685141124  0.27472679350860585  Uiso  ?  Ce
O1  1.0  0.3685245535482272  0.3371573161868478  0.2365279205071498  Uiso  ?  O
O1  1.0  0.40680831813673785  0.34194044443775845  0.26026816659139507  Uiso  ?  O
Ce1  1.0  0.3487618345961227  0.36957619066741726  0.2214163532691047  Uiso  ?  Ce
Ce1  1.0  0.3864565778315724  0.3702442490383532  0.17278837430662614  Uiso  ?  Ce
Ce1  1.0  0.40266864762395915  0.3430770473239088  0.22332452397446614  Uiso  ?  Ce
Ce1  1.0  0.40177712562623963  0.4030479311095549  0.2227328250353263  Uiso  ?  Ce
O1  1.0  0.3860555230927097  0.371114930098753  0.21019860918978903  Uiso  ?  O
O1  1.0  0.4207188923237924  0.37260967753728286  0.23611564099000987  Uiso  ?  O
O1  1.0  0.3989071248882961  0.40498184134630644  0.18441690800089014  Uiso  ?  O
O1  1.0  0.4328257724018312  0.40554058946560745  0.20688635310455578  Uiso  ?  O
O1  1.0  0.4031960896819518  0.3438484594512561  0.18482561808104084  Uiso  ?  O
O1  1.0  0.43947290545151135  0.34279954913830896  0.20791496290272185  Uiso  ?  O
O1  1.0  0.4198372299186616  0.37657281421451383  0.15778110162661957  Uiso  ?  O
O1  1.0  0.4549679377905381  0.37566734659494927  0.18442526138104895  Uiso  ?  O
Ce1  1.0  0.4356439369310288  0.40551436556388176  0.17412264259934712  Uiso  ?  Ce
O1  1.0  0.435178623216881  0.40563098224379734  0.13547220012378838  Uiso  ?  O
O1  1.0  0.4704566788772978  0.40662511206493424  0.15695522728058325  Uiso  ?  O
Ce1  1.0  0.4385500043831486  0.34395047606716156  0.1698869676527799  Uiso  ?  Ce
O1  1.0  0.43823740030387903  0.34682441410333925  0.13423398050568205  Uiso  ?  O
O1  1.0  0.47348025254724324  0.34558536171667287  0.16075841976802394  Uiso  ?  O
Ce1  1.0  0.41687214903814035  0.3710557155117487  0.12105164806126831  Uiso  ?  Ce
Ce1  1.0  0.4725037963994692  0.34655445530461015  0.11927250993741226  Uiso  ?  Ce
Ce1  1.0  0.4696708236273655  0.40564295543908  0.12191812678351233  Uiso  ?  Ce
O1  1.0  0.48976506714972634  0.37815369748046396  0.13247331254866831  Uiso  ?  O
O1  1.0  0.1627611989495489  0.3827736529806837  0.764479755603593  Uiso  ?  O
O1  1.0  0.18577764969056468  0.3561351480747173  0.7430211773978992  Uiso  ?  O
Ce1  1.0  0.16287454889898897  0.38337693360836705  0.7304445026189292  Uiso  ?  Ce
O1  1.0  0.180960251299374  0.4137937231342145  0.7382432698100182  Uiso  ?  O
O1  1.0  0.1642952824645955  0.38535468536967693  0.6920978161394487  Uiso  ?  O
O1  1.0  0.20113230361177709  0.384839033804296  0.7156313528713495  Uiso  ?  O
O1  1.0  0.17591245999951402  0.4158416374122713  0.6656693012041631  Uiso  ?  O
O1  1.0  0.21607053728756373  0.41817254612019206  0.6904693863145556  Uiso  ?  O
Ce1  1.0  0.18227115836368707  0.3534680502362231  0.6257298528724934  Uiso  ?  Ce
Ce1  1.0  0.19989703156517868  0.38684695537389113  0.6791411970746936  Uiso  ?  Ce
O1  1.0  0.1805113464831667  0.35442400757050674  0.6666145882127578  Uiso  ?  O
O1  1.0  0.21934116723152497  0.3546164552199029  0.6905209449421819  Uiso  ?  O
O1  1.0  0.19834166585265833  0.38695299800995353  0.6394309483816148  Uiso  ?  O
O1  1.0  0.23494981776924084  0.3899361115961317  0.6665080197725153  Uiso  ?  O
O1  1.0  0.2161588305371443  0.35266841949067873  0.6151226068455926  Uiso  ?  O
O1  1.0  0.25266193793522235  0.3595522811503472  0.6401494274085575  Uiso  ?  O
Ce1  1.0  0.17918660097551248  0.41868468263442227  0.6309347946607852  Uiso  ?  Ce
Ce1  1.0  0.2116079438877385  0.42055781759607325  0.5756171041026105  Uiso  ?  Ce
Ce1  1.0  0.2338072150666569  0.38787731656273816  0.6270958118607021  Uiso  ?  Ce
O1  1.0  0.21506687410524075  0.4200048200557802  0.6155760711361582  Uiso  ?  O
O1  1.0  0.24951763883071884  0.4225359613324621  0.6414443224249134  Uiso  ?  O
O1  1.0  0.23390237246938234  0.38926283205097495  0.5868263935469028  Uiso  ?  O
O1  1.0  0.2677539415838417  0.38904027766499305  0.615521457338548  Uiso  ?  O
O1  1.0  0.24822718943385816  0.4203885155252731  0.5654387720486695  Uiso  ?  O
O1  1.0  0.28126991002540636  0.4238004733738967  0.58929317887616  Uiso  ?  O
Ce1  1.0  0.21592868783325608  0.35729805125173747  0.5772976920566312  Uiso  ?  Ce
Ce1  1.0  0.24932337683745898  0.3592641287054774  0.525051705729159  Uiso  ?  Ce
Ce1  1.0  0.2647931398835342  0.3898160846265687  0.5758834229997292  Uiso  ?  Ce
O1  1.0  0.2515721580417436  0.35990959993792726  0.5621489774749928  Uiso  ?  O
O1  1.0  0.2875840445978219  0.36108904096166156  0.5882569275166691  Uiso  ?  O
O1  1.0  0.2637436265899139  0.3930954949586226  0.5404843118070355  Uiso  ?  O
O1  1.0  0.30335208042696776  0.39570280714448375  0.5670292795367657  Uiso  ?  O
O1  1.0  0.28391911631071187  0.3629641452046595  0.5133167449867025  Uiso  ?  O
O1  1.0  0.3207204620623943  0.36563558025280457  0.5380016664592356  Uiso  ?  O
Ce1  1.0  0.24408845025548026  0.41734217431697496  0.5254159317797356  Uiso  ?  Ce
Ce1  1.0  0.30395829534345103  0.394023694473533  0.52485982331497  Uiso  ?  Ce
O1  1.0  0.3002267834599605  0.3949732787998327  0.4865662547706216  Uiso  ?  O
O1  1.0  0.3372275821600635  0.3960635585146633  0.5151115159529794  Uiso  ?  O
Ce1  1.0  0.28444446001356494  0.3615369837651771  0.47477680720553084  Uiso  ?  Ce
Ce1  1.0  0.3171442672063993  0.36524360064291456  0.4247847815462998  Uiso  ?  Ce
Ce1  1.0  0.3370267840588613  0.3961428444535264  0.4736235844668025  Uiso  ?  Ce
O1  1.0  0.3209385985260003  0.36564678413878804  0.46221588376634637  Uiso  ?  O
O1  1.0  0.3541624389349055  0.36780141879527595  0.489172345863672  Uiso  ?  O
O1  1.0  0.33526285574230014  0.3991466371856372  0.4367618035388755  Uiso  ?  O
O1  1.0  0.3735222716292021  0.39707191811820675  0.4570386653892989  Uiso  ?  O
O1  1.0  0.3539225439707701  0.36544831162684743  0.4105066528899141  Uiso  ?  O
O1  1.0  0.39213218788361187  0.36788122513019467  0.43394505064755756  Uiso  ?  O
Ce1  1.0  0.371893150556165  0.3994700421614646  0.4242951875704302  Uiso  ?  Ce
O1  1.0  0.36750178551936896  0.39865511450292374  0.38794963196947657  Uiso  ?  O
O1  1.0  0.40728787624354607  0.4018235962635389  0.41104819334957915  Uiso  ?  O
O1  1.0  0.40814936369842564  0.3382151085151375  0.4096167400056391  Uiso  ?  O
Ce1  1.0  0.35544858933262036  0.3673055135467412  0.37332779511627984  Uiso  ?  Ce
Ce1  1.0  0.3893138949008124  0.370748257401204  0.3221911261994129  Uiso  ?  Ce
Ce1  1.0  0.4067408047541114  0.33825008509530385  0.37459794124717566  Uiso  ?  Ce
Ce1  1.0  0.40390381893781696  0.40154009255058487  0.3722775329799977  Uiso  ?  Ce
O1  1.0  0.3874240209200156  0.37117533387139  0.3633945482423691  Uiso  ?  O
O1  1.0  0.42443821689046146  0.3724151275900049  0.38598250892523184  Uiso  ?  O
O1  1.0  0.40602844961944345  0.3997262454629936  0.33355335896912425  Uiso  ?  O
O1  1.0  0.4429538257867411  0.40460036010915273  0.35716767134973987  Uiso  ?  O
O1  1.0  0.4037937784313044  0.33948112985755186  0.3355325375056342  Uiso  ?  O
O1  1.0  0.44303439883732426  0.34104671550842924  0.35761866784449664  Uiso  ?  O
O1  1.0  0.42201504393900663  0.3720044380025817  0.30865502611283363  Uiso  ?  O
O1  1.0  0.45741913440395393  0.37573546800915714  0.33378020286560905  Uiso  ?  O
Ce1  1.0  0.44007235343668255  0.40410143629500095  0.31898885184773373  Uiso  ?  Ce
O1  1.0  0.43695886363858744  0.40621913525523434  0.2853181971634541  Uiso  ?  O
O1  1.0  0.47477809530911125  0.40420127355841623  0.3087429407334188  Uiso  ?  O
Ce1  1.0  0.4445828129805856  0.3420634638615311  0.3211296061772767  Uiso  ?  Ce
O1  1.0  0.44258138595001956  0.3417600279639708  0.2847119005098462  Uiso  ?  O
O1  1.0  0.47392950223028707  0.3468907655409757  0.30812104318244293  Uiso  ?  O
Ce1  1.0  0.4224763518639903  0.3708939572353227  0.2698182211287198  Uiso  ?  Ce
Ce1  1.0  0.45453088565347544  0.37468880758397427  0.22111044891766032  Uiso  ?  Ce
Ce1  1.0  0.47745433699342293  0.34304747003178376  0.2703527442587012  Uiso  ?  Ce
Ce1  1.0  0.47322968013710376  0.4034778247269959  0.2712937740813413  Uiso  ?  Ce
O1  1.0  0.456329986239623  0.37137673751959444  0.25827238597304125  Uiso  ?  O
O1  1.0  0.49489621387254085  0.37686557751717265  0.28082047620808864  Uiso  ?  O
O1  1.0  0.47029937335704197  0.40698495394064643  0.23706185205273927  Uiso  ?  O
O1  1.0  0.5073783457993035  0.40785192403350323  0.2569146223043512  Uiso  ?  O
O1  1.0  0.4772652730366048  0.3432252224103222  0.2323833296444148  Uiso  ?  O
O1  1.0  0.5107852870092031  0.3483742733672668  0.255708982666148  Uiso  ?  O
O1  1.0  0.4905033209751609  0.37565503347492263  0.209323031479199  Uiso  ?  O
O1  1.0  0.5266263484762373  0.37771548945318834  0.2335565044087051  Uiso  ?  O
Ce1  1.0  0.5061953222241586  0.40574104244845854  0.22248511185391764  Uiso  ?  Ce
O1  1.0  0.5072585979966029  0.4105796988982801  0.1825217147821773  Uiso  ?  O
O1  1.0  0.5386627582949982  0.4080667190706636  0.20458162997770862  Uiso  ?  O
Ce1  1.0  0.5100508583776654  0.34501459529121137  0.2213248132830021  Uiso  ?  Ce
O1  1.0  0.5097101304493857  0.3458809938436217  0.18292107403108826  Uiso  ?  O
O1  1.0  0.545330646131475  0.350666726752873  0.20512982601794086  Uiso  ?  O
Ce1  1.0  0.49037536669178067  0.37866265012665706  0.16891202750680637  Uiso  ?  Ce
Ce1  1.0  0.5245105347824777  0.381819950237417  0.1208136673413357  Uiso  ?  Ce
Ce1  1.0  0.543281376024762  0.34925606165527834  0.16667280123598477  Uiso  ?  Ce
Ce1  1.0  0.5402967669546375  0.40642933657549024  0.169259420805435  Uiso  ?  Ce
O1  1.0  0.5246284826055829  0.38043292881202767  0.15698202130574232  Uiso  ?  O
O1  1.0  0.5597870706432468  0.3817725176902196  0.1820155351712478  Uiso  ?  O
O1  1.0  0.5399264723223788  0.41447109283221767  0.12965556459861713  Uiso  ?  O
O1  1.0  0.5728764757537285  0.4134099225350153  0.15568723545118038  Uiso  ?  O
O1  1.0  0.542620345451907  0.3465542428618141  0.13009088240652397  Uiso  ?  O
O1  1.0  0.5797515788827491  0.3532666111954773  0.1576981092489187  Uiso  ?  O
O1  1.0  0.18446776714438504  0.35137380168304894  0.8879621260235137  Uiso  ?  O
Ce1  1.0  0.16734647727895738  0.38123238028016354  0.8770076980436531  Uiso  ?  Ce
O1  1.0  0.18523470092906202  0.4136773693965632  0.8900738628831523  Uiso  ?  O
O1  1.0  0.1675351024773848  0.38102230618028554  0.841013725234693  Uiso  ?  O
O1  1.0  0.20593118822116674  0.382156159600631  0.8700586112803654  Uiso  ?  O
O1  1.0  0.1830660439576356  0.41613439006781766  0.8173477992617305  Uiso  ?  O
O1  1.0  0.22074901085142912  0.41524467396805903  0.8416010364642272  Uiso  ?  O
Ce1  1.0  0.1850321702195142  0.35505646120235007  0.7767462047796619  Uiso  ?  Ce
Ce1  1.0  0.20292984478677828  0.381650646761855  0.8305032986699196  Uiso  ?  Ce
O1  1.0  0.18515578491117154  0.3511296316456488  0.8150567288121096  Uiso  ?  O
O1  1.0  0.2216210772036168  0.35362579851266324  0.8406838901297543  Uiso  ?  O
O1  1.0  0.20254095649177506  0.38449559556864865  0.78943080646573  Uiso  ?  O
O1  1.0  0.237452323664345  0.3873204730568682  0.8175705524941548  Uiso  ?  O
O1  1.0  0.2186340091247195  0.3544581135657113  0.7638842534193434  Uiso  ?  O
O1  1.0  0.25613291240612135  0.35748218696931294  0.7891959500023888  Uiso  ?  O
Ce1  1.0  0.1815716282729862  0.41817588465721245  0.779008659641631  Uiso  ?  Ce
Ce1  1.0  0.2159913462460104  0.41587027197115  0.7269505952094311  Uiso  ?  Ce
Ce1  1.0  0.23764922800177693  0.38533551108876263  0.7795879530708806  Uiso  ?  Ce
O1  1.0  0.21677355913703394  0.4161572293249607  0.7684913689473097  Uiso  ?  O
O1  1.0  0.2517311773071502  0.41656733277943814  0.7909404669377449  Uiso  ?  O
O1  1.0  0.23517141350091766  0.3849615623337043  0.7370908479148561  Uiso  ?  O
O1  1.0  0.26854853329933825  0.3896628317407826  0.765357226384308  Uiso  ?  O
O1  1.0  0.25156576319746554  0.4180056319786544  0.7160142908458664  Uiso  ?  O
O1  1.0  0.286159900598639  0.4241535376374808  0.739626045462333  Uiso  ?  O
Ce1  1.0  0.21741608939301665  0.35591437779949137  0.7272729969871642  Uiso  ?  Ce
Ce1  1.0  0.25189845767967906  0.3562240167352686  0.6772824134525035  Uiso  ?  Ce
Ce1  1.0  0.2739688629613735  0.38959312968036175  0.726084523302217  Uiso  ?  Ce
O1  1.0  0.2541972818876774  0.3572044337287233  0.7154975575232233  Uiso  ?  O
O1  1.0  0.2892969803258521  0.3617794776846161  0.7387778305656142  Uiso  ?  O
O1  1.0  0.2701237049406028  0.38943754472460035  0.6880715468991748  Uiso  ?  O
O1  1.0  0.3052801842936661  0.3918941059629253  0.7129358834151328  Uiso  ?  O
O1  1.0  0.2849857262895297  0.3594621578430352  0.6613954388256231  Uiso  ?  O
O1  1.0  0.32658624748075793  0.3619687665989471  0.6871238344510652  Uiso  ?  O
Ce1  1.0  0.25187722652806666  0.4198190176322694  0.6778442228816507  Uiso  ?  Ce
Ce1  1.0  0.2826519521880839  0.4218000974237776  0.6247455121900813  Uiso  ?  Ce
Ce1  1.0  0.306037863186969  0.39177760950993656  0.6762923619603158  Uiso  ?  Ce
O1  1.0  0.28501601625977413  0.4224889383671097  0.6650272982003876  Uiso  ?  O
O1  1.0  0.32303786842527477  0.4210071964992916  0.6895791260447315  Uiso  ?  O
O1  1.0  0.30613821046778456  0.3893485012783128  0.635791735465785  Uiso  ?  O
O1  1.0  0.3374095768728468  0.3924504524226627  0.658306173744746  Uiso  ?  O
Ce1  1.0  0.2863523729253581  0.36062428041123834  0.6253590114028773  Uiso  ?  Ce
Ce1  1.0  0.32048952444850143  0.36427667367518957  0.5737302752493079  Uiso  ?  Ce
Ce1  1.0  0.3411350720858829  0.3932587963400331  0.6273432327448324  Uiso  ?  Ce
O1  1.0  0.3212465304583429  0.36293525421534895  0.6104098189310885  Uiso  ?  O
O1  1.0  0.35849440786196735  0.3660546727230305  0.6345565311678674  Uiso  ?  O
O1  1.0  0.3401279372251621  0.3938798962989587  0.5866432619980462  Uiso  ?  O
O1  1.0  0.3744121023366837  0.39607217478546364  0.6151350852108347  Uiso  ?  O
O1  1.0  0.3565447242656725  0.36494589661214755  0.5615839760879463  Uiso  ?  O
O1  1.0  0.39152671066571887  0.3660145613448967  0.5862376634622434  Uiso  ?  O
Ce1  1.0  0.3735264891662743  0.39589242600314256  0.5747313340232164  Uiso  ?  Ce
O1  1.0  0.3754246977394172  0.39546014838361765  0.5343546018737713  Uiso  ?  O
O1  1.0  0.40755137154239457  0.39934092819594813  0.5639820884154946  Uiso  ?  O
Ce1  1.0  0.35680475737248046  0.36410960735134557  0.522133861314764  Uiso  ?  Ce
Ce1  1.0  0.39179591984020123  0.36798055371328614  0.47386083966525644  Uiso  ?  Ce
Ce1  1.0  0.4063914974485763  0.39671608739787684  0.5220560687608445  Uiso  ?  Ce
O1  1.0  0.3905456530037252  0.3649705859420531  0.5087121701662769  Uiso  ?  O
O1  1.0  0.427002215045103  0.36779252024292935  0.5336706623810372  Uiso  ?  O
O1  1.0  0.4051390040629427  0.401853993091236  0.48743167066420734  Uiso  ?  O
O1  1.0  0.4416016481146573  0.4017852944540952  0.5071764245274819  Uiso  ?  O
O1  1.0  0.4107738660757367  0.33929933039526045  0.48448189746353715  Uiso  ?  O
O1  1.0  0.4479470405125153  0.3384967564868445  0.5065321306016842  Uiso  ?  O
O1  1.0  0.42591604770645053  0.36704452379292263  0.4610694228599863  Uiso  ?  O
O1  1.0  0.4609702712576981  0.36936532376065073  0.48304058547732537  Uiso  ?  O
Ce1  1.0  0.44292685995896613  0.40368986375324944  0.47085667657856606  Uiso  ?  Ce
O1  1.0  0.4380777436553727  0.3992895581174885  0.4358524356675379  Uiso  ?  O
O1  1.0  0.4759669018073387  0.4008854602885233  0.455529891507456  Uiso  ?  O
Ce1  1.0  0.44565403885957444  0.3404297115039761  0.4714946562789649  Uiso  ?  Ce
O1  1.0  0.44425224410831365  0.3424269081090368  0.43040887217034585  Uiso  ?  O
O1  1.0  0.47996596007584313  0.3458217089794839  0.4577942629245063  Uiso  ?  O
Ce1  1.0  0.42575425074500406  0.3709137685121221  0.42280014015087325  Uiso  ?  Ce
Ce1  1.0  0.45818767562822554  0.37073355760489113  0.36798640173681485  Uiso  ?  Ce
Ce1  1.0  0.4808750671952541  0.34345665538221365  0.4206625574001742  Uiso  ?  Ce
Ce1  1.0  0.47428977236801595  0.40513002155820427  0.42397941927086  Uiso  ?  Ce
O1  1.0  0.4599079026082878  0.3730355745307132  0.4059431076074233  Uiso  ?  O
O1  1.0  0.49598388185241804  0.37339392334028354  0.4324630883881894  Uiso  ?  O
O1  1.0  0.47682105689070564  0.4052364495008859  0.38346301040457903  Uiso  ?  O
O1  1.0  0.5123271849639124  0.40678519278950726  0.41062959537115185  Uiso  ?  O
O1  1.0  0.48009033075737223  0.3444620408191592  0.38528084973408966  Uiso  ?  O
O1  1.0  0.5164640503931981  0.34535262055593774  0.4061038891030573  Uiso  ?  O
O1  1.0  0.49302125644879335  0.3750374498310189  0.3583699295267071  Uiso  ?  O
O1  1.0  0.5312622840641406  0.3771594249041597  0.38545952113077137  Uiso  ?  O
Ce1  1.0  0.510037554717037  0.40501320863707724  0.370295335660604  Uiso  ?  Ce
O1  1.0  0.5081270680763819  0.40530907224500007  0.3357376956386961  Uiso  ?  O
O1  1.0  0.5467014818817586  0.4045956965201057  0.3570388036656328  Uiso  ?  O
Ce1  1.0  0.5131135077876148  0.34481649652739765  0.3675031049316531  Uiso  ?  Ce
O1  1.0  0.5121061422996819  0.3478063909063618  0.33282923134357345  Uiso  ?  O
O1  1.0  0.5497891330337402  0.34714649131067155  0.35730394079943095  Uiso  ?  O
Ce1  1.0  0.4957355954188099  0.37474178006717795  0.3212994251566508  Uiso  ?  Ce
Ce1  1.0  0.5310470021766805  0.37857494785079016  0.2696908729360758  Uiso  ?  Ce
Ce1  1.0  0.546465121680943  0.3445427824046356  0.3191836532941156  Uiso  ?  Ce
Ce1  1.0  0.5442384484830045  0.41023627888811576  0.3173679388276441  Uiso  ?  Ce
O1  1.0  0.5277236481354745  0.37846692843130453  0.30821982043534024  Uiso  ?  O
O1  1.0  0.5646689684591767  0.3780848832696475  0.3318559515058698  Uiso  ?  O
O1  1.0  0.544069950503932  0.4082963742710883  0.2832990822422555  Uiso  ?  O
O1  1.0  0.5820127503117238  0.4089531215139484  0.30679072615244896  Uiso  ?  O
O1  1.0  0.546796919360671  0.3486979284941222  0.28148658370539037  Uiso  ?  O
O1  1.0  0.5835449196367549  0.3484330237995602  0.3076578662217111  Uiso  ?  O
O1  1.0  0.5645931432677561  0.3795744556072528  0.25685900885048385  Uiso  ?  O
O1  1.0  0.6001266419995276  0.3831064383269614  0.2848475306890436  Uiso  ?  O
Ce1  1.0  0.5815465884413341  0.40857456237453693  0.27014788966026804  Uiso  ?  Ce
O1  1.0  0.5783023108359556  0.4127666840115766  0.23189858259251186  Uiso  ?  O
Ce1  1.0  0.584902695592048  0.3510236214326378  0.26870366138020735  Uiso  ?  Ce
O1  1.0  0.5818751952539802  0.35313978184977757  0.22872564050741598  Uiso  ?  O
O1  1.0  0.6155987327666345  0.35470873022451804  0.25459028201705997  Uiso  ?  O
Ce1  1.0  0.5620277317249459  0.3813990051731601  0.2240813865378927  Uiso  ?  Ce
Ce1  1.0  0.5968152438085705  0.3841269783679477  0.16798858292710173  Uiso  ?  Ce
Ce1  1.0  0.6158338815080212  0.35425213031737446  0.21607299899302448  Uiso  ?  Ce
O1  1.0  0.5986002690674272  0.38750659146118244  0.20411345953470866  Uiso  ?  O
O1  1.0  0.634187171150387  0.3865742101727802  0.23275675654855002  Uiso  ?  O
O1  1.0  0.6178774524989726  0.35509562388307125  0.18153518749387373  Uiso  ?  O
O1  1.0  0.6506429386296374  0.356646628106039  0.2043474331370196  Uiso  ?  O
Ce1  1.0  0.651794810893146  0.354165895290837  0.1654415905187044  Uiso  ?  Ce
Ce1  1.0  0.21950443365171438  0.4162195405990485  0.8771147817758604  Uiso  ?  Ce
O1  1.0  0.2379205822707893  0.3854235779411623  0.8910895378932093  Uiso  ?  O
O1  1.0  0.25400826952626493  0.4165893704265277  0.8636021598366515  Uiso  ?  O
O1  1.0  0.28978962738309894  0.4180829999179175  0.8902441986761154  Uiso  ?  O
Ce1  1.0  0.22249530154218075  0.3514387814542061  0.8786813447360241  Uiso  ?  Ce
Ce1  1.0  0.25785273928684577  0.3541790938494984  0.8266789039189463  Uiso  ?  Ce
Ce1  1.0  0.272015681169658  0.3879279808315335  0.8765708333265846  Uiso  ?  Ce
O1  1.0  0.2574561555691076  0.35476594732042854  0.8654155138598467  Uiso  ?  O
O1  1.0  0.2938808978830726  0.35682189005394266  0.8890611867428395  Uiso  ?  O
O1  1.0  0.27129495039695883  0.3861083677782204  0.8405039053344707  Uiso  ?  O
O1  1.0  0.30921931420413673  0.39059921740954273  0.8654620756589337  Uiso  ?  O
O1  1.0  0.29083979227636975  0.35690909647079955  0.8109788408271028  Uiso  ?  O
O1  1.0  0.3291641224807968  0.358226948001737  0.8386669195110731  Uiso  ?  O
Ce1  1.0  0.2528129684588034  0.41659091811678217  0.8274158336967591  Uiso  ?  Ce
Ce1  1.0  0.28922445456387796  0.42059690276362693  0.7777699498158193  Uiso  ?  Ce
Ce1  1.0  0.30973062658021755  0.3859860034890492  0.8271471251567194  Uiso  ?  Ce
O1  1.0  0.28837179167851085  0.418556755187615  0.8155760073514925  Uiso  ?  O
O1  1.0  0.32320518863275394  0.4251457634300894  0.8408628717029094  Uiso  ?  O
O1  1.0  0.31038097376807416  0.38769913580273746  0.7867945238639826  Uiso  ?  O
O1  1.0  0.3409874136196317  0.38935839362173036  0.8117506399183906  Uiso  ?  O
O1  1.0  0.32330580963362543  0.42164612681649916  0.7621096945377915  Uiso  ?  O
Ce1  1.0  0.2913521495603216  0.3561296667802466  0.7759033415057924  Uiso  ?  Ce
Ce1  1.0  0.32512110659582266  0.3615044593767948  0.7233754044172679  Uiso  ?  Ce
Ce1  1.0  0.3436571083936718  0.3920205069970755  0.7779253421674072  Uiso  ?  Ce
O1  1.0  0.32707715340417154  0.366003333432648  0.7635757907507009  Uiso  ?  O
O1  1.0  0.36055660429464464  0.3609832385437947  0.7886504572614877  Uiso  ?  O
O1  1.0  0.34183191092472565  0.3917779422108313  0.7372685023352639  Uiso  ?  O
O1  1.0  0.3754792138032259  0.3927756168483145  0.7612224432481932  Uiso  ?  O
O1  1.0  0.3603341044684355  0.3623672969793196  0.7088394006291017  Uiso  ?  O
O1  1.0  0.3991918126218742  0.3664749222859106  0.7354890707076007  Uiso  ?  O
Ce1  1.0  0.3201427070849752  0.422097919103445  0.72501952317378  Uiso  ?  Ce
Ce1  1.0  0.37685812859775236  0.39380256278307807  0.7237523065403997  Uiso  ?  Ce
O1  1.0  0.37570161621648845  0.3947151545239157  0.6860043610031062  Uiso  ?  O
O1  1.0  0.4137542055163128  0.39653353605001007  0.7143646603024656  Uiso  ?  O
Ce1  1.0  0.3597158610399333  0.36184063373731634  0.6716121125609943  Uiso  ?  Ce
Ce1  1.0  0.39484860756951323  0.3627139678852445  0.6231925840403658  Uiso  ?  Ce
Ce1  1.0  0.4113753638166152  0.39918008184334686  0.6713571059723678  Uiso  ?  Ce
O1  1.0  0.3941381717834632  0.36470273267551573  0.6608719956733499  Uiso  ?  O
O1  1.0  0.42874790665759827  0.36708299983201303  0.6869529115497899  Uiso  ?  O
O1  1.0  0.4085798811023404  0.3969500094849319  0.6372630797131499  Uiso  ?  O
O1  1.0  0.44795957302963496  0.3986538787042357  0.6617200115814924  Uiso  ?  O
O1  1.0  0.42617786170037303  0.36482169513405804  0.6091352639313328  Uiso  ?  O
O1  1.0  0.4671703093147301  0.3692399133674937  0.6334200075058781  Uiso  ?  O
Ce1  1.0  0.44602498077622965  0.4001358839201557  0.6235676148824926  Uiso  ?  Ce
O1  1.0  0.4445796741667904  0.40180724441229493  0.5847271675202639  Uiso  ?  O
O1  1.0  0.4801712522729924  0.40144148146264363  0.60658922332059  Uiso  ?  O
Ce1  1.0  0.449653333410112  0.34134231354373995  0.6192880178711049  Uiso  ?  Ce
O1  1.0  0.4474953137079935  0.3383740666132513  0.5832534981381252  Uiso  ?  O
O1  1.0  0.4836313508020134  0.3399585608333157  0.607396217961808  Uiso  ?  O
Ce1  1.0  0.4277969750785227  0.3684148175101424  0.5727514190584274  Uiso  ?  Ce
Ce1  1.0  0.4647152075128573  0.37083264396384225  0.5213310279446375  Uiso  ?  Ce
Ce1  1.0  0.48422336176554215  0.33996391995508435  0.5691233818524438  Uiso  ?  Ce
Ce1  1.0  0.4788908399806273  0.40651155575842024  0.5725245943951156  Uiso  ?  Ce
O1  1.0  0.4629378065473448  0.3724995220471897  0.5585393211466165  Uiso  ?  O
O1  1.0  0.49978191539432226  0.37344181642082186  0.58244451923303  Uiso  ?  O
O1  1.0  0.47879200267901706  0.40336947282999047  0.5357608639837652  Uiso  ?  O
O1  1.0  0.516994081473713  0.4047012424227139  0.5592167600850498  Uiso  ?  O
O1  1.0  0.4817240721688124  0.3405643843474926  0.5340081738930786  Uiso  ?  O
O1  1.0  0.5151806774167017  0.3449717916809754  0.5570544365824648  Uiso  ?  O
O1  1.0  0.49799146596498195  0.3726298798453124  0.5066998988932889  Uiso  ?  O
O1  1.0  0.5317283422031652  0.3762733182333082  0.535122941280931  Uiso  ?  O
Ce1  1.0  0.5126407161079577  0.40353368821964675  0.5215395717294733  Uiso  ?  Ce
O1  1.0  0.5165066672446288  0.4035431361157781  0.48214156473394226  Uiso  ?  O
O1  1.0  0.5482732440341963  0.40892609188956064  0.5087167668292947  Uiso  ?  O
Ce1  1.0  0.5179773144931806  0.3423522302964566  0.5202756535187935  Uiso  ?  Ce
O1  1.0  0.5188915771214582  0.346089866413588  0.4832874555017584  Uiso  ?  O
O1  1.0  0.5528507818757528  0.34415680258113573  0.5064126561123157  Uiso  ?  O
Ce1  1.0  0.49499761831791034  0.3762158866735563  0.4693922628398563  Uiso  ?  Ce
Ce1  1.0  0.5329122180760726  0.3755869150890039  0.420041919218577  Uiso  ?  Ce
Ce1  1.0  0.5506232069301872  0.3506646493353359  0.46940797570682496  Uiso  ?  Ce
Ce1  1.0  0.5488796086414289  0.4088365239737322  0.4713496428932969  Uiso  ?  Ce
O1  1.0  0.5325576633837775  0.37237478984897676  0.4558591749722884  Uiso  ?  O
O1  1.0  0.5666164852553355  0.3764167857429095  0.4835049374656687  Uiso  ?  O
O1  1.0  0.5474935325919429  0.4101805793196067  0.43163970140836916  Uiso  ?  O
O1  1.0  0.582675722003755  0.40985814065575266  0.45768968089382833  Uiso  ?  O
O1  1.0  0.5499362549299487  0.3465376918080436  0.43100660955834946  Uiso  ?  O
O1  1.0  0.5850427966715384  0.3502669881233638  0.45762434631374693  Uiso  ?  O
O1  1.0  0.5668379594481336  0.37579224495947017  0.40931252934299783  Uiso  ?  O
O1  1.0  0.6016641354517284  0.37874326003274944  0.43062849884964866  Uiso  ?  O
Ce1  1.0  0.5835650291436365  0.4117171595196574  0.4205006853582012  Uiso  ?  Ce
O1  1.0  0.5822103311903427  0.41103869843166846  0.3768806118403893  Uiso  ?  O
O1  1.0  0.6198613959976444  0.4146998204395052  0.4021969745686851  Uiso  ?  O
Ce1  1.0  0.5874635397770444  0.34982935247015445  0.42008134080641135  Uiso  ?  Ce
O1  1.0  0.5879349704900394  0.34797441774630145  0.3829623821667085  Uiso  ?  O
O1  1.0  0.6219478709676401  0.3514441826565321  0.4063159059976667  Uiso  ?  O
Ce1  1.0  0.5668209043183975  0.37847413970878657  0.36671042393745923  Uiso  ?  Ce
Ce1  1.0  0.6003323742520891  0.38149593377109137  0.3204606683510637  Uiso  ?  Ce
Ce1  1.0  0.6168122167221999  0.34981323954948046  0.3674144818938037  Uiso  ?  Ce
Ce1  1.0  0.6176150737479514  0.4099795720154671  0.3674860112323846  Uiso  ?  Ce
O1  1.0  0.6018293379286541  0.3827827927404775  0.35723703401660223  Uiso  ?  O
O1  1.0  0.6355693496708595  0.3828050658761421  0.38269219791494646  Uiso  ?  O
O1  1.0  0.6158518284129222  0.4144544256955395  0.3301202205423608  Uiso  ?  O
O1  1.0  0.6203418142127317  0.3523304365785605  0.3294500585807252  Uiso  ?  O
O1  1.0  0.6571579796833396  0.3538423690743226  0.35185178699582137  Uiso  ?  O
O1  1.0  0.633763521398567  0.3857025908671167  0.30283384836368904  Uiso  ?  O
O1  1.0  0.6730060777859643  0.38636718763701067  0.32865019113759875  Uiso  ?  O
Ce1  1.0  0.6556482314793557  0.35223320521461154  0.3148715409112068  Uiso  ?  Ce
O1  1.0  0.6524118635140721  0.35519320901934953  0.28029943307818145  Uiso  ?  O
O1  1.0  0.6901366470227173  0.3566086716133906  0.3038783082905207  Uiso  ?  O
Ce1  1.0  0.6335559154023599  0.3853126762209058  0.2696926622713875  Uiso  ?  Ce
Ce1  1.0  0.6893918199109869  0.35500096953990407  0.26828106618552866  Uiso  ?  Ce
O1  1.0  0.6648382583948705  0.3865410922215398  0.2525890637760838  Uiso  ?  O
O1  1.0  0.685909263293852  0.3590971538999609  0.22924373747210552  Uiso  ?  O
O1  1.0  0.723088111034089  0.35736858082700684  0.2513695041359367  Uiso  ?  O
Ce1  1.0  0.3283408780111729  0.3566503519643171  0.874559951299042  Uiso  ?  Ce
O1  1.0  0.34558687256725007  0.3921980997345065  0.8855028306442768  Uiso  ?  O
O1  1.0  0.36271232055433805  0.3616921545808907  0.8625636264476387  Uiso  ?  O
O1  1.0  0.3994253805571045  0.3630745351526008  0.8865210108076763  Uiso  ?  O
Ce1  1.0  0.3249940353703148  0.4190240442450928  0.8738582939072344  Uiso  ?  Ce
Ce1  1.0  0.36033581399415227  0.42037990935596886  0.8275762973911089  Uiso  ?  Ce
Ce1  1.0  0.37967704483004405  0.3933306845452989  0.8749917971043062  Uiso  ?  Ce
O1  1.0  0.3593623608870136  0.4215648148093544  0.8624678028539032  Uiso  ?  O
O1  1.0  0.3794430967524657  0.39492646219678024  0.8361283714394596  Uiso  ?  O
O1  1.0  0.415426540221561  0.3966685734424904  0.8623609310930329  Uiso  ?  O
Ce1  1.0  0.3630619551708819  0.36362759317303395  0.8231603988734918  Uiso  ?  Ce
Ce1  1.0  0.3983899618781358  0.3645544337618149  0.7749384374906622  Uiso  ?  Ce
Ce1  1.0  0.41435154040522654  0.3949422407947862  0.8272776360181584  Uiso  ?  Ce
O1  1.0  0.39750955954795086  0.3646813730780487  0.8119921647763193  Uiso  ?  O
O1  1.0  0.4350735478429863  0.3654283141688653  0.8323586057644313  Uiso  ?  O
O1  1.0  0.4144837756915543  0.39767848640608544  0.786374072320708  Uiso  ?  O
O1  1.0  0.44938204552954253  0.3978770378856878  0.8139877405251777  Uiso  ?  O
O1  1.0  0.43066798475023005  0.36758870252691556  0.7613866049160204  Uiso  ?  O
O1  1.0  0.46641284660496135  0.36565348718334706  0.7830797229751201  Uiso  ?  O
Ce1  1.0  0.447692680988623  0.3977062565792911  0.7757554748280242  Uiso  ?  Ce
O1  1.0  0.44593545714007204  0.4011774031166402  0.7323887711017314  Uiso  ?  O
O1  1.0  0.4853729549670986  0.40002488589577323  0.7581930890177075  Uiso  ?  O
O1  1.0  0.49021546390904386  0.3383415484956625  0.7591157292394074  Uiso  ?  O
Ce1  1.0  0.42938425120480744  0.3657242269628425  0.7224078502381904  Uiso  ?  Ce
Ce1  1.0  0.4673380775694906  0.36894278725741664  0.6766234779057527  Uiso  ?  Ce
Ce1  1.0  0.48654285524002483  0.3368349233872391  0.7237049718932222  Uiso  ?  Ce
Ce1  1.0  0.4790080466314454  0.40267857000607565  0.7189846455766634  Uiso  ?  Ce
O1  1.0  0.46627423167251664  0.3674972143303919  0.7075702414994881  Uiso  ?  O
O1  1.0  0.5012006346139177  0.37083202968356943  0.7324848192319705  Uiso  ?  O
O1  1.0  0.48333381004413817  0.3986500488194744  0.6846897709180255  Uiso  ?  O
O1  1.0  0.5211650879036809  0.4036382920090411  0.7072524106214503  Uiso  ?  O
O1  1.0  0.4856776698117781  0.3396325066564136  0.6854178491024626  Uiso  ?  O
O1  1.0  0.5201450479035286  0.33958948561854085  0.70549454035581  Uiso  ?  O
O1  1.0  0.5007775736007801  0.37141858106964354  0.6603359992489819  Uiso  ?  O
O1  1.0  0.5383582732742972  0.3752017609915408  0.6847323542746032  Uiso  ?  O
Ce1  1.0  0.5147712630672132  0.4022462970957765  0.6730125872206495  Uiso  ?  Ce
O1  1.0  0.5168491062119321  0.40375439942433916  0.6343023661427093  Uiso  ?  O
O1  1.0  0.5530395526565112  0.40830720574596163  0.6576704020089554  Uiso  ?  O
Ce1  1.0  0.5207254132552182  0.3399631003956753  0.6718892355786705  Uiso  ?  Ce
O1  1.0  0.5182071387233006  0.3407450747330139  0.6326754292365764  Uiso  ?  O
O1  1.0  0.5548347292805147  0.34303804666042154  0.6567886623187629  Uiso  ?  O
Ce1  1.0  0.5004551427200554  0.36925447419879337  0.6209185591313112  Uiso  ?  Ce
Ce1  1.0  0.534310487922127  0.3741758387756254  0.5723876884693556  Uiso  ?  Ce
Ce1  1.0  0.5550836555433729  0.3439868978020579  0.6185563147827318  Uiso  ?  Ce
Ce1  1.0  0.5531507033814078  0.40448179256176375  0.6192169919292472  Uiso  ?  Ce
O1  1.0  0.5329480350649326  0.3717364056922359  0.6068215217966344  Uiso  ?  O
O1  1.0  0.5732291576036128  0.3762349436904035  0.6314104768930783  Uiso  ?  O
O1  1.0  0.5508455456180984  0.40869864015054697  0.5864438814605696  Uiso  ?  O
O1  1.0  0.5866592638325885  0.40885316767654173  0.6056598900738647  Uiso  ?  O
O1  1.0  0.5553650530013605  0.34527888676001023  0.5820504769388615  Uiso  ?  O
O1  1.0  0.5939142496601059  0.34705470111293113  0.6049440216248232  Uiso  ?  O
O1  1.0  0.5700195149869782  0.3765854810799248  0.5559936689121558  Uiso  ?  O
O1  1.0  0.604385367125413  0.3765452217821944  0.5839064038974685  Uiso  ?  O
Ce1  1.0  0.5854322627057396  0.40552206746059716  0.5710777972298228  Uiso  ?  Ce
O1  1.0  0.5856818820653682  0.40716794468286  0.5321163103993859  Uiso  ?  O
O1  1.0  0.6205759452161976  0.41110823391691603  0.5592028430220276  Uiso  ?  O
Ce1  1.0  0.5876160765482215  0.3480574404436551  0.5695049101256854  Uiso  ?  Ce
O1  1.0  0.5897063984275862  0.3483599963678682  0.5298787200285527  Uiso  ?  O
O1  1.0  0.6262419110314482  0.34904709876787493  0.5562009631401039  Uiso  ?  O
Ce1  1.0  0.5689714322170232  0.37676190677890514  0.5196146151179076  Uiso  ?  Ce
Ce1  1.0  0.6014182329002635  0.380109823891688  0.47104927514892125  Uiso  ?  Ce
Ce1  1.0  0.622300739288819  0.35086705304878446  0.5159333200142378  Uiso  ?  Ce
Ce1  1.0  0.61917456729346  0.41094230247027724  0.5206313198429929  Uiso  ?  Ce
O1  1.0  0.6027621297461002  0.3775463584093012  0.5037579765151972  Uiso  ?  O
O1  1.0  0.6394219812160921  0.3799132694361082  0.5319201434689116  Uiso  ?  O
O1  1.0  0.6169321254990014  0.4115039287969636  0.4806107703268314  Uiso  ?  O
O1  1.0  0.6219154138690279  0.346695824304086  0.4796352761039379  Uiso  ?  O
O1  1.0  0.6588905712693525  0.3509819600572866  0.5054401224469807  Uiso  ?  O
O1  1.0  0.6390937918209149  0.3834070523287793  0.45542508509173796  Uiso  ?  O
O1  1.0  0.6717762735092841  0.38280776022007507  0.47978611834581525  Uiso  ?  O
Ce1  1.0  0.6577485496438281  0.3504043946458278  0.4659456180959426  Uiso  ?  Ce
O1  1.0  0.6563989772944574  0.3516974055338324  0.42669923553974365  Uiso  ?  O
O1  1.0  0.6934385724632393  0.35510024338122476  0.4546661081470916  Uiso  ?  O
Ce1  1.0  0.6357927420894196  0.3833994975396487  0.41848951007166496  Uiso  ?  Ce
Ce1  1.0  0.6692750552187171  0.3872434189218513  0.3670206408575857  Uiso  ?  Ce
Ce1  1.0  0.6903995923861561  0.35529033743088345  0.41465332136652205  Uiso  ?  Ce
O1  1.0  0.6736940981193639  0.38476471605180634  0.40302776550710423  Uiso  ?  O
O1  1.0  0.690175441529155  0.3541318291161479  0.37553023018205584  Uiso  ?  O
O1  1.0  0.7267153756038163  0.3550617035419939  0.40078814803136265  Uiso  ?  O
Ce1  1.0  0.7250799824922614  0.3589602667486456  0.3651956329456879  Uiso  ?  Ce
O1  1.0  0.7246709068512516  0.35611915925532933  0.32565719394516024  Uiso  ?  O
O1  1.0  0.4506731084206256  0.3941129208099318  0.8837051901410726  Uiso  ?  O
Ce1  1.0  0.4357434285732013  0.36355996378416783  0.875148909610797  Uiso  ?  Ce
Ce1  1.0  0.4688108793873641  0.3668117314947134  0.8231521060122252  Uiso  ?  Ce
Ce1  1.0  0.48490422708790104  0.3986891043787142  0.8746972505020746  Uiso  ?  Ce
O1  1.0  0.472360113574034  0.37067162034483114  0.8632640505191128  Uiso  ?  O
O1  1.0  0.5066838953126381  0.36977176102043335  0.8839657421491265  Uiso  ?  O
O1  1.0  0.48616553051423766  0.39872980637018823  0.8357255440456527  Uiso  ?  O
O1  1.0  0.519750506094953  0.3988340921034859  0.8576160340669574  Uiso  ?  O
O1  1.0  0.5237871244498327  0.33832398890480925  0.8595543098962418  Uiso  ?  O
O1  1.0  0.5011535878234842  0.36577779159434803  0.8075744651484605  Uiso  ?  O
O1  1.0  0.5407237303193315  0.36981094177256363  0.831560522132554  Uiso  ?  O
Ce1  1.0  0.5216563274227931  0.3990825650130464  0.8241808713406372  Uiso  ?  Ce
O1  1.0  0.5196026502892592  0.4028910400335555  0.7843342734241991  Uiso  ?  O
O1  1.0  0.5550920163861036  0.4004030315832544  0.8071945198879048  Uiso  ?  O
Ce1  1.0  0.5240710025589309  0.34182836532155647  0.8207990464697469  Uiso  ?  Ce
O1  1.0  0.5231636771171474  0.3389074601411606  0.785352069483837  Uiso  ?  O
O1  1.0  0.55821114923717  0.3418081374411753  0.8081458619028942  Uiso  ?  O
Ce1  1.0  0.5045067979227917  0.37138575067370966  0.7700209656325272  Uiso  ?  Ce
Ce1  1.0  0.5367411918680586  0.3751419725489754  0.7204743280403564  Uiso  ?  Ce
Ce1  1.0  0.557873818635394  0.34346727379230707  0.7726076124465343  Uiso  ?  Ce
Ce1  1.0  0.5542988242532823  0.40483106559709625  0.7716525923758165  Uiso  ?  Ce
O1  1.0  0.5377371468845633  0.3740551089419349  0.7562766598559701  Uiso  ?  O
O1  1.0  0.5737513985570937  0.37177271597227585  0.7813991135783162  Uiso  ?  O
O1  1.0  0.5535509634648104  0.40592647709646495  0.73344986209545  Uiso  ?  O
O1  1.0  0.5903717502625353  0.402666756249064  0.7550357639172088  Uiso  ?  O
O1  1.0  0.5581748891970044  0.3444441513365513  0.7319492274457924  Uiso  ?  O
O1  1.0  0.5908136014867078  0.34296631705933045  0.7567867105507026  Uiso  ?  O
O1  1.0  0.5732325690193537  0.3732311250992976  0.7057100737325406  Uiso  ?  O
O1  1.0  0.6080049216984592  0.37624907410033487  0.7335466234489737  Uiso  ?  O
Ce1  1.0  0.5896240146299452  0.40408548659176585  0.718511832892129  Uiso  ?  Ce
O1  1.0  0.5883613748630979  0.4074075059996042  0.6816725632670011  Uiso  ?  O
O1  1.0  0.6248756078555464  0.40914312818139686  0.7067446510821808  Uiso  ?  O
Ce1  1.0  0.5927195017974691  0.3455248451819164  0.7201269096728926  Uiso  ?  Ce
O1  1.0  0.5925198429660901  0.3434742440582926  0.6826734085762298  Uiso  ?  O
O1  1.0  0.6254192321945113  0.3488403106586115  0.7050258169868644  Uiso  ?  O
Ce1  1.0  0.5740684006731306  0.3755922107418038  0.674427361609451  Uiso  ?  Ce
Ce1  1.0  0.607075165680048  0.3795502263266012  0.6182045156963945  Uiso  ?  Ce
Ce1  1.0  0.6267823214172173  0.3452715421913086  0.670262388118036  Uiso  ?  Ce
Ce1  1.0  0.6218285170832499  0.4109059037025292  0.6675308596421892  Uiso  ?  Ce
O1  1.0  0.6039806947664992  0.37735863128819397  0.6565740911096049  Uiso  ?  O
O1  1.0  0.6461133413756841  0.3774238977755322  0.680152631548319  Uiso  ?  O
O1  1.0  0.621058891392566  0.40974866927148623  0.6308837428432749  Uiso  ?  O
O1  1.0  0.6255831679796305  0.3458364324631763  0.6282184864413188  Uiso  ?  O
O1  1.0  0.6622432243377689  0.3485302486402916  0.6543859973108174  Uiso  ?  O
O1  1.0  0.6418335398826507  0.3766841032708504  0.6051527753275012  Uiso  ?  O
O1  1.0  0.675713631224508  0.3841771065165765  0.630923254942273  Uiso  ?  O
Ce1  1.0  0.6607017845663721  0.3510605444152214  0.6210148485936681  Uiso  ?  Ce
O1  1.0  0.6588037860653312  0.34933447021756153  0.5804197579168064  Uiso  ?  O
O1  1.0  0.6964557770580063  0.3536525343566298  0.6056231686602254  Uiso  ?  O
Ce1  1.0  0.6398287105225746  0.38047507373095923  0.5673840907861027  Uiso  ?  Ce
Ce1  1.0  0.6756634214560312  0.3853280868622868  0.5141212601883004  Uiso  ?  Ce
Ce1  1.0  0.6934067724496326  0.354959549435254  0.5688821227178109  Uiso  ?  Ce
O1  1.0  0.6752168755942238  0.3810168725138529  0.5523861125835384  Uiso  ?  O
O1  1.0  0.6948300778940751  0.3551291259964546  0.5280441891609873  Uiso  ?  O
O1  1.0  0.7308737040484633  0.3543717683441512  0.554474154896349  Uiso  ?  O
Ce1  1.0  0.7279715822496334  0.355645947005518  0.5143033228539567  Uiso  ?  Ce
O1  1.0  0.7278714766721442  0.3547752911607641  0.4793319325930241  Uiso  ?  O
Ce1  1.0  0.5400065063267121  0.3697922893664945  0.8721367756244061  Uiso  ?  Ce
O1  1.0  0.5593805547282423  0.40275746444650573  0.8819890135212285  Uiso  ?  O
O1  1.0  0.561831865486523  0.34162884163151797  0.8824231570393726  Uiso  ?  O
O1  1.0  0.574056400388842  0.37196106856055583  0.8568055557075325  Uiso  ?  O
O1  1.0  0.5928049443440654  0.4026369840587217  0.832183849044765  Uiso  ?  O
Ce1  1.0  0.5975706253234708  0.34688210890530624  0.8695915344467067  Uiso  ?  Ce
O1  1.0  0.5945273629216072  0.34558926496083575  0.8340683369997725  Uiso  ?  O
O1  1.0  0.6305689943390949  0.3431884287701252  0.8544897236814385  Uiso  ?  O
Ce1  1.0  0.5777796253056147  0.37054780520407227  0.8198365508223635  Uiso  ?  Ce
Ce1  1.0  0.6086658923665751  0.37508876267441255  0.7673679366398151  Uiso  ?  Ce
Ce1  1.0  0.6275656795055247  0.3466970069734063  0.8180974996435887  Uiso  ?  Ce
O1  1.0  0.6103696905964565  0.3775238871923297  0.8092085829191215  Uiso  ?  O
O1  1.0  0.6453982655326509  0.3768851955748174  0.8307210660043941  Uiso  ?  O
O1  1.0  0.6261489445712681  0.4090246284443432  0.7810950620928352  Uiso  ?  O
O1  1.0  0.6285001560382912  0.3476301812190007  0.7816772815420002  Uiso  ?  O
O1  1.0  0.6648092424197484  0.34969248023434646  0.8061357967910436  Uiso  ?  O
O1  1.0  0.6447441520103571  0.3801113576980937  0.7571329772953642  Uiso  ?  O
O1  1.0  0.6804364671701041  0.379557124480766  0.779832399695075  Uiso  ?  O
Ce1  1.0  0.6630523443714713  0.3474174075184275  0.7664658814287635  Uiso  ?  Ce
O1  1.0  0.6615417307402763  0.345832149608226  0.7303563780400215  Uiso  ?  O
O1  1.0  0.7002190625727911  0.35150932800560897  0.7535069321283492  Uiso  ?  O
Ce1  1.0  0.6412948677165976  0.37813884352926186  0.7186347742303362  Uiso  ?  Ce
Ce1  1.0  0.6753059103080462  0.3816013492871166  0.6666525538782693  Uiso  ?  Ce
Ce1  1.0  0.6982878483796695  0.3512589097242926  0.7221045146452238  Uiso  ?  Ce
O1  1.0  0.6768338443044265  0.38142331911476257  0.7039034272890854  Uiso  ?  O
O1  1.0  0.697523389703922  0.3478026454179758  0.679223229602387  Uiso  ?  O
O1  1.0  0.7329462336791055  0.35344521147251884  0.7035223977287266  Uiso  ?  O
Ce1  1.0  0.7329907575490991  0.35437573124735683  0.663454724318862  Uiso  ?  Ce
O1  1.0  0.7334666980032598  0.3536598675961645  0.6306893734832582  Uiso  ?  O
O1  1.0  0.6991616507716786  0.34829422372641594  0.8287163401023416  Uiso  ?  O
Ce1  1.0  0.7404240392931355  0.3516936943116127  0.812991668771532  Uiso  ?  Ce
O1  1.0  0.7353908564273755  0.35372729453731727  0.7770431408113818  Uiso  ?  O
O1  1.0  0.16106801952668065  0.2677721416265507  0.16374969077655122  Uiso  ?  O
O1  1.0  0.171361173563851  0.3009969610919616  0.13854192815625882  Uiso  ?  O
O1  1.0  0.16099396946415642  0.265868141935897  0.3166380617099221  Uiso  ?  O
Ce1  1.0  0.16203559717170465  0.264803838171084  0.2774980181741091  Uiso  ?  Ce
O1  1.0  0.17619602479376392  0.29720688597716166  0.2890861635604014  Uiso  ?  O
O1  1.0  0.19260873931479602  0.33150359659628403  0.2640239668051693  Uiso  ?  O
O1  1.0  0.19562773374692322  0.26661679532728527  0.26180207473372663  Uiso  ?  O
O1  1.0  0.17431388385389865  0.30050865670300664  0.21389452950187515  Uiso  ?  O
O1  1.0  0.2128716129552311  0.3023390724130118  0.23901798902831936  Uiso  ?  O
Ce1  1.0  0.19286407383355728  0.3330671079848712  0.22401239089628658  Uiso  ?  Ce
O1  1.0  0.18941441763631053  0.32992798116763994  0.18812595436035398  Uiso  ?  O
O1  1.0  0.228124087121563  0.32801997314284564  0.21186717443886477  Uiso  ?  O
Ce1  1.0  0.19931732044444464  0.2670306702310188  0.22525386613805087  Uiso  ?  Ce
O1  1.0  0.19346366610428653  0.27072637613898465  0.18916986693731813  Uiso  ?  O
O1  1.0  0.22921953948071813  0.27087222121463383  0.21000380255088866  Uiso  ?  O
Ce1  1.0  0.17763750632148387  0.30037214998759687  0.17647259430454598  Uiso  ?  Ce
Ce1  1.0  0.2109798436516821  0.29949091282176543  0.12442812485992008  Uiso  ?  Ce
Ce1  1.0  0.2292605261734765  0.27565499064582927  0.1737592891958963  Uiso  ?  Ce
Ce1  1.0  0.22593991486026804  0.3300152050541378  0.17787716619081517  Uiso  ?  Ce
O1  1.0  0.21140052488861105  0.30332235330982993  0.16495109351607395  Uiso  ?  O
O1  1.0  0.2460725607917355  0.3053088692386795  0.18502441825387872  Uiso  ?  O
O1  1.0  0.22733920603448227  0.3353357960044301  0.13968705898609543  Uiso  ?  O
O1  1.0  0.2617218877007799  0.336691603683574  0.16028815355801196  Uiso  ?  O
O1  1.0  0.22910143492966004  0.27043071675979774  0.1383465888994414  Uiso  ?  O
O1  1.0  0.2645339038223913  0.2766251406924894  0.15948846842297662  Uiso  ?  O
O1  1.0  0.28173131323481915  0.3031077520269698  0.13502518034558705  Uiso  ?  O
Ce1  1.0  0.2615397730386706  0.33444704272197795  0.12371446952030436  Uiso  ?  Ce
Ce1  1.0  0.2651915977880802  0.2777287552455986  0.12319895959281499  Uiso  ?  Ce
O1  1.0  0.16328350276123754  0.326123482627335  0.4648685689272194  Uiso  ?  O
O1  1.0  0.16621416154630586  0.262532941572472  0.4635879909428464  Uiso  ?  O
Ce1  1.0  0.16362996169091618  0.26632344545052705  0.4277740999913205  Uiso  ?  Ce
O1  1.0  0.17898647098541484  0.2947055955346815  0.4389635277186661  Uiso  ?  O
O1  1.0  0.19763474851878113  0.32520877486422267  0.41412892994115186  Uiso  ?  O
O1  1.0  0.16466953924188665  0.2643572102802064  0.39064980398885035  Uiso  ?  O
O1  1.0  0.20054303346891322  0.2692950805209162  0.4162560547226318  Uiso  ?  O
O1  1.0  0.18303538273697462  0.2983109030476993  0.3605089633105144  Uiso  ?  O
O1  1.0  0.21453368250450386  0.30017056963991157  0.39018959711485257  Uiso  ?  O
Ce1  1.0  0.19698996319432016  0.32621845777563213  0.375861604908305  Uiso  ?  Ce
O1  1.0  0.19247498722400236  0.3299518899715133  0.33676926119119305  Uiso  ?  O
O1  1.0  0.22779358752246923  0.32738499730110676  0.3631368480501828  Uiso  ?  O
Ce1  1.0  0.19603479036775756  0.26664244611256194  0.3741866314059019  Uiso  ?  Ce
O1  1.0  0.19829430564464928  0.26884605078617757  0.33673489416906344  Uiso  ?  O
O1  1.0  0.23385776534192765  0.26906354525674264  0.3612950458252868  Uiso  ?  O
Ce1  1.0  0.1764566235729781  0.2984527486552339  0.3257472406244558  Uiso  ?  Ce
Ce1  1.0  0.2103984788805854  0.30228395028268695  0.278319275311147  Uiso  ?  Ce
Ce1  1.0  0.22933095483132526  0.2692540723603873  0.3250780192772416  Uiso  ?  Ce
Ce1  1.0  0.23005835148578058  0.329723751956053  0.3241919496844973  Uiso  ?  Ce
O1  1.0  0.21423321178058558  0.29927105480359567  0.3123062326218842  Uiso  ?  O
O1  1.0  0.24861452596327216  0.29770286953263186  0.3361558829650864  Uiso  ?  O
O1  1.0  0.22924219384278474  0.329065420378855  0.2866412984735707  Uiso  ?  O
O1  1.0  0.26525505918229325  0.33252429946144424  0.31008969246617957  Uiso  ?  O
O1  1.0  0.23309378800012054  0.2695121078744342  0.2864858456977631  Uiso  ?  O
O1  1.0  0.2685873208754341  0.27358088540665376  0.31040903246444373  Uiso  ?  O
O1  1.0  0.24817700872084453  0.30085535795247015  0.2604101765102655  Uiso  ?  O
O1  1.0  0.28378127605596953  0.30366339164767414  0.2842226223350999  Uiso  ?  O
Ce1  1.0  0.26451195897250745  0.3345941277677844  0.27619863926896115  Uiso  ?  Ce
O1  1.0  0.26505597942161563  0.33684741759577225  0.23913143294917477  Uiso  ?  O
O1  1.0  0.2975295378377822  0.33441722053918477  0.26302585684296176  Uiso  ?  O
Ce1  1.0  0.2689959360564494  0.2743416017325735  0.2724987248048159  Uiso  ?  Ce
O1  1.0  0.26438536274829216  0.2727625074436788  0.233850986160087  Uiso  ?  O
O1  1.0  0.3028496093432889  0.2758192016599476  0.26311096158327213  Uiso  ?  O
Ce1  1.0  0.2473676824040483  0.30119992489946396  0.22454528870675755  Uiso  ?  Ce
Ce1  1.0  0.2816554877389637  0.3034059213133997  0.17347877373693626  Uiso  ?  Ce
Ce1  1.0  0.30126565182337184  0.2748072412196388  0.22294464327251298  Uiso  ?  Ce
Ce1  1.0  0.2982222571573177  0.33655794891282437  0.22517015402511026  Uiso  ?  Ce
O1  1.0  0.2827413747591275  0.3020201155748124  0.21214933288048152  Uiso  ?  O
O1  1.0  0.3182204994467309  0.30753820660521536  0.23558020455071726  Uiso  ?  O
O1  1.0  0.29876881859344906  0.33725744343490605  0.18827968294296996  Uiso  ?  O
O1  1.0  0.3002868046968029  0.2778743835826236  0.18679509586392984  Uiso  ?  O
O1  1.0  0.33713343423530284  0.27795180941374603  0.20882846476032352  Uiso  ?  O
O1  1.0  0.3169753300556604  0.3068626258645001  0.16371169309149508  Uiso  ?  O
O1  1.0  0.3536886113043989  0.308736381090304  0.18721402838684975  Uiso  ?  O
Ce1  1.0  0.33393041185732053  0.27913362885014065  0.17022953087247664  Uiso  ?  Ce
O1  1.0  0.3339675240199394  0.2768138478372018  0.1330166141102157  Uiso  ?  O
O1  1.0  0.3722872179706647  0.27897387216877456  0.1587635426568617  Uiso  ?  O
Ce1  1.0  0.3136692184816864  0.3092154415525674  0.1249804251814369  Uiso  ?  Ce
Ce1  1.0  0.3679550258348223  0.276538194719224  0.12484042513710021  Uiso  ?  Ce
O1  1.0  0.3840913080036993  0.3126917344257814  0.13408926534818985  Uiso  ?  O
O1  1.0  0.16511346101544175  0.32371345780998545  0.61407560618405  Uiso  ?  O
O1  1.0  0.16977456243036154  0.25983827273421284  0.6160809605230774  Uiso  ?  O
Ce1  1.0  0.1679033901512217  0.2633332339582551  0.5777038507642649  Uiso  ?  Ce
Ce1  1.0  0.16450262500735688  0.3236861264516955  0.5788524905130114  Uiso  ?  Ce
O1  1.0  0.18546575791575673  0.2963917852700667  0.5915834589820996  Uiso  ?  O
O1  1.0  0.16486070841528638  0.3272519989246301  0.539429156178148  Uiso  ?  O
O1  1.0  0.20106243714668295  0.3261132313163087  0.5658411868203448  Uiso  ?  O
O1  1.0  0.16492260610273757  0.2617290837660196  0.5408265295541086  Uiso  ?  O
O1  1.0  0.20104167868260447  0.2650845037447798  0.560793914059434  Uiso  ?  O
O1  1.0  0.18117724134220367  0.29452489418820615  0.5155682749454004  Uiso  ?  O
O1  1.0  0.2207982541807021  0.2946327985924878  0.536083331769531  Uiso  ?  O
Ce1  1.0  0.1974860814586996  0.323252139084915  0.5274907585998646  Uiso  ?  Ce
O1  1.0  0.19869365964958463  0.3260022520839086  0.48854889499401916  Uiso  ?  O
O1  1.0  0.2343310951815003  0.32635374871013134  0.5142390096381982  Uiso  ?  O
Ce1  1.0  0.20150520729895574  0.2652731498955088  0.5269074588839645  Uiso  ?  Ce
O1  1.0  0.2006497926678374  0.26471563999035264  0.48636471394322234  Uiso  ?  O
O1  1.0  0.23779772078356246  0.2681935389680446  0.5143030260479339  Uiso  ?  O
Ce1  1.0  0.1803951896399534  0.2948796350873071  0.4751103017993603  Uiso  ?  Ce
Ce1  1.0  0.21791082526155356  0.29871990952686067  0.4251770753155196  Uiso  ?  Ce
Ce1  1.0  0.23945687839869823  0.2652037930601799  0.4739539524942809  Uiso  ?  Ce
Ce1  1.0  0.22957536799789677  0.32696246196666573  0.4766075093682595  Uiso  ?  Ce
O1  1.0  0.21893886149686675  0.2983956218076397  0.46448326544428864  Uiso  ?  O
O1  1.0  0.2502067871501482  0.29779071733303947  0.4878501535185371  Uiso  ?  O
O1  1.0  0.23223975032040134  0.33077080264419817  0.4392299460557725  Uiso  ?  O
O1  1.0  0.2667625551452374  0.33050883289358557  0.4622831001826892  Uiso  ?  O
O1  1.0  0.23256732552382145  0.2661480009525953  0.44059397027736874  Uiso  ?  O
O1  1.0  0.2699215472411843  0.2695835650597199  0.46595745874455796  Uiso  ?  O
O1  1.0  0.25283921761728373  0.3016199055918137  0.41529397119355893  Uiso  ?  O
O1  1.0  0.2861248088919302  0.30298128174278605  0.4363120159784525  Uiso  ?  O
Ce1  1.0  0.26425912736303586  0.32950915572775474  0.4266183616207173  Uiso  ?  Ce
O1  1.0  0.26275473778849023  0.331381031630519  0.38676624751502586  Uiso  ?  O
O1  1.0  0.30227582524350993  0.33304943923397035  0.4117664287365587  Uiso  ?  O
Ce1  1.0  0.2706575504000902  0.2726988404221031  0.4228856344281069  Uiso  ?  Ce
O1  1.0  0.26602531909201815  0.27183310017516543  0.38466435238783037  Uiso  ?  O
O1  1.0  0.3086801060528921  0.2738034879497429  0.41196166534192175  Uiso  ?  O
Ce1  1.0  0.24983955199431168  0.3030036959049471  0.374955938299748  Uiso  ?  Ce
Ce1  1.0  0.2834523104075936  0.3027637748792733  0.32333219001198443  Uiso  ?  Ce
Ce1  1.0  0.3048976041611525  0.2692541615544272  0.3765291977833127  Uiso  ?  Ce
Ce1  1.0  0.299796710566658  0.3321590258509836  0.377554449119936  Uiso  ?  Ce
O1  1.0  0.2835734227978797  0.2992521237879706  0.36242159067545354  Uiso  ?  O
O1  1.0  0.32248397799711914  0.305261764782011  0.38562701310767983  Uiso  ?  O
O1  1.0  0.30032132946288503  0.3344435109130457  0.33672077892456126  Uiso  ?  O
O1  1.0  0.33638597529793424  0.3361079983040343  0.36262355615709063  Uiso  ?  O
O1  1.0  0.3056331895749514  0.2728497746673408  0.33919235433062866  Uiso  ?  O
O1  1.0  0.3388504468154517  0.2723521396806216  0.3594573958042116  Uiso  ?  O
O1  1.0  0.3205421405192959  0.3054241698187509  0.3102742228881908  Uiso  ?  O
O1  1.0  0.35578637431015225  0.3091461003235335  0.3345091766168704  Uiso  ?  O
Ce1  1.0  0.3362693315093211  0.3337695802099236  0.3238179659088056  Uiso  ?  Ce
O1  1.0  0.333563528979203  0.33841600256439336  0.2848949551843388  Uiso  ?  O
Ce1  1.0  0.34013496322544523  0.275365743242977  0.3217537309850197  Uiso  ?  Ce
O1  1.0  0.3399656120979491  0.273332581324598  0.286628973623003  Uiso  ?  O
O1  1.0  0.37349500939621116  0.2743910272590276  0.3128324893749362  Uiso  ?  O
Ce1  1.0  0.31973358041556743  0.3063352684048171  0.2727990303088751  Uiso  ?  Ce
Ce1  1.0  0.35457638974087785  0.30692683207201465  0.2236167268509393  Uiso  ?  Ce
Ce1  1.0  0.3737599374861097  0.2779114916474038  0.27055439446809487  Uiso  ?  Ce
O1  1.0  0.3549320624182065  0.3092556446878292  0.2605011680471531  Uiso  ?  O
O1  1.0  0.38649405397225867  0.3105794349235274  0.2855853491949228  Uiso  ?  O
O1  1.0  0.3744995279268999  0.2795110185534521  0.23617419971114334  Uiso  ?  O
O1  1.0  0.40843939388046935  0.2789734981859427  0.2584426288355045  Uiso  ?  O
O1  1.0  0.3892157705513622  0.30902747219790827  0.20922935447138669  Uiso  ?  O
O1  1.0  0.42384194373996853  0.3116095964969345  0.23423078640478537  Uiso  ?  O
Ce1  1.0  0.4084130271396918  0.2812427798467615  0.22174927014634074  Uiso  ?  Ce
O1  1.0  0.40537077389213644  0.28128287290475934  0.1827090087876799  Uiso  ?  O
O1  1.0  0.4431763966417916  0.28284101884707435  0.2068185601341224  Uiso  ?  O
O1  1.0  0.4596531700526472  0.25065618621073943  0.17879156628831774  Uiso  ?  O
Ce1  1.0  0.3862595573839262  0.31113070226440553  0.16970722827487947  Uiso  ?  Ce
Ce1  1.0  0.424077628601425  0.313721665695425  0.118700048369601  Uiso  ?  Ce
Ce1  1.0  0.4431132026790315  0.28087814686313933  0.17166108176009326  Uiso  ?  Ce
O1  1.0  0.4208993327865655  0.31260297267461373  0.16021053900743082  Uiso  ?  O
O1  1.0  0.4567946937136897  0.31412920907065944  0.17986370535816415  Uiso  ?  O
O1  1.0  0.4406007187467604  0.28308210940250494  0.13307250668684173  Uiso  ?  O
O1  1.0  0.47673463152006035  0.2857649875553528  0.15570485945148638  Uiso  ?  O
O1  1.0  0.49319416015934203  0.3174341784335315  0.13218893760752298  Uiso  ?  O
Ce1  1.0  0.4781779495289818  0.2886829566949798  0.12115471271337833  Uiso  ?  Ce
O1  1.0  0.4959360092710743  0.2550055988842987  0.13274243340423342  Uiso  ?  O
O1  1.0  0.16743754100487798  0.3214675610077381  0.7661332207238983  Uiso  ?  O
O1  1.0  0.17450875843658248  0.2623168505657949  0.7639669984638229  Uiso  ?  O
Ce1  1.0  0.17060201122447957  0.26381610519991167  0.7270015871235381  Uiso  ?  Ce
Ce1  1.0  0.171273503480305  0.3213040665434559  0.7268573171823411  Uiso  ?  Ce
O1  1.0  0.1866148333063489  0.29166021060623026  0.7451134798254156  Uiso  ?  O
O1  1.0  0.16787480833722201  0.32054052769566765  0.6907913320340762  Uiso  ?  O
O1  1.0  0.20258313777738268  0.3233385569585681  0.7144135083774311  Uiso  ?  O
O1  1.0  0.17133158115647598  0.26028070699759465  0.6887417983311436  Uiso  ?  O
O1  1.0  0.20851285624155708  0.2644110330068475  0.7121053021012299  Uiso  ?  O
O1  1.0  0.18814073187965497  0.2926917659874053  0.6643821891534658  Uiso  ?  O
O1  1.0  0.22086174453387578  0.2933246432534079  0.6884222468710004  Uiso  ?  O
Ce1  1.0  0.202223350595675  0.32452003186976663  0.6761600840248133  Uiso  ?  Ce
O1  1.0  0.2008758160406671  0.3240383740165983  0.6425806339633412  Uiso  ?  O
O1  1.0  0.23450266315522963  0.3252159220564416  0.6656956890263505  Uiso  ?  O
Ce1  1.0  0.20403456199751585  0.2602135256599192  0.6739351410084257  Uiso  ?  Ce
O1  1.0  0.20309930236258242  0.26278543173829605  0.6413916637305446  Uiso  ?  O
O1  1.0  0.2445869215467466  0.26649701675874604  0.6603900979015647  Uiso  ?  O
Ce1  1.0  0.18710098332360253  0.29279729899477547  0.6277399904194266  Uiso  ?  Ce
Ce1  1.0  0.21920347051909012  0.29618705853088123  0.5757476079238601  Uiso  ?  Ce
Ce1  1.0  0.23806712022799706  0.2636305587300833  0.6245437779741606  Uiso  ?  Ce
Ce1  1.0  0.23539301934265378  0.32690059532916793  0.6244605870559172  Uiso  ?  Ce
O1  1.0  0.21916129721498154  0.2959804716036005  0.6159463624310091  Uiso  ?  O
O1  1.0  0.2568225344316857  0.29541028612283693  0.6385797998594616  Uiso  ?  O
O1  1.0  0.23496112926271812  0.32833666510497145  0.5910330035063864  Uiso  ?  O
O1  1.0  0.26985187362447677  0.33069225245418093  0.6126209966818921  Uiso  ?  O
O1  1.0  0.23781759954994486  0.2682623672426953  0.5877468575727126  Uiso  ?  O
O1  1.0  0.27437218419701936  0.26806541353469243  0.6115640279273065  Uiso  ?  O
O1  1.0  0.2549992542024969  0.2989482986536402  0.5623757768215599  Uiso  ?  O
O1  1.0  0.2887581337089675  0.29937911046420773  0.5855506336897472  Uiso  ?  O
Ce1  1.0  0.2711149493034867  0.33120304181385374  0.5752946137616792  Uiso  ?  Ce
O1  1.0  0.2685489936662405  0.330846333403519  0.5364698281478231  Uiso  ?  O
O1  1.0  0.31140611204797103  0.3323996021955304  0.5625488410390745  Uiso  ?  O
Ce1  1.0  0.2731689386755471  0.26718307174096884  0.5712743965566339  Uiso  ?  Ce
O1  1.0  0.27353519003052684  0.26876756789155626  0.5400501916022485  Uiso  ?  O
O1  1.0  0.3100831654565481  0.2709946650840898  0.5607269895237571  Uiso  ?  O
Ce1  1.0  0.25228805737237264  0.30039137594350934  0.5231258074749409  Uiso  ?  Ce
Ce1  1.0  0.28982936420002525  0.30163265427505326  0.4713631071396519  Uiso  ?  Ce
Ce1  1.0  0.30697438457762327  0.2703173829601587  0.5233073935362362  Uiso  ?  Ce
Ce1  1.0  0.30554130842304944  0.33276212371817165  0.5245734818805992  Uiso  ?  Ce
O1  1.0  0.28725879489537776  0.29803890393681315  0.5143460645679759  Uiso  ?  O
O1  1.0  0.3250449769063237  0.3006710493076391  0.536250108817911  Uiso  ?  O
O1  1.0  0.30333876219007955  0.3334451131927715  0.48576135224948574  Uiso  ?  O
O1  1.0  0.34170076590114046  0.33418238439615777  0.5136168968499581  Uiso  ?  O
O1  1.0  0.3055802723162785  0.27012533007268297  0.48414044431111125  Uiso  ?  O
O1  1.0  0.34477183110187826  0.271184063655426  0.5107927111646977  Uiso  ?  O
O1  1.0  0.32236472542257844  0.3038783657581522  0.46068997472697  Uiso  ?  O
O1  1.0  0.3572707896101918  0.3043484091255275  0.48563220297110765  Uiso  ?  O
Ce1  1.0  0.33869623013728606  0.33427615302552816  0.47654314648305435  Uiso  ?  Ce
O1  1.0  0.336886627883325  0.3345305484863857  0.43619364449345466  Uiso  ?  O
O1  1.0  0.3731543344031785  0.340053309959673  0.4609233385201101  Uiso  ?  O
Ce1  1.0  0.3439005379932851  0.27240858665869155  0.47305977860383885  Uiso  ?  Ce
O1  1.0  0.3414213978010938  0.27119498477510534  0.4348497147104625  Uiso  ?  O
O1  1.0  0.3803361311747767  0.2739160840542652  0.46097433712977204  Uiso  ?  O
Ce1  1.0  0.32382315388389343  0.30434092670220103  0.42388116815996146  Uiso  ?  Ce
Ce1  1.0  0.3557426601705989  0.3074423495529438  0.37314754053831767  Uiso  ?  Ce
Ce1  1.0  0.3748316329092543  0.27505647529334526  0.4214188046587368  Uiso  ?  Ce
Ce1  1.0  0.374352896109655  0.3365992759591765  0.4220787124570633  Uiso  ?  Ce
O1  1.0  0.35533173215862235  0.304851581555677  0.4098576288054157  Uiso  ?  O
O1  1.0  0.3943367060371464  0.3051754467347028  0.43502935070964466  Uiso  ?  O
O1  1.0  0.37358477589144445  0.3389928111437453  0.3851286709199983  Uiso  ?  O
O1  1.0  0.3750704437815624  0.27414945619129116  0.3842414495797943  Uiso  ?  O
O1  1.0  0.41260782423635456  0.2803576164091489  0.407134309654618  Uiso  ?  O
O1  1.0  0.3925113251423144  0.3099216411578772  0.3581539943607815  Uiso  ?  O
O1  1.0  0.4273922807994916  0.31100949907652026  0.38330568493460837  Uiso  ?  O
Ce1  1.0  0.4151752986292639  0.2796982622437502  0.37436347080030685  Uiso  ?  Ce
O1  1.0  0.41063821540431833  0.2795964877054532  0.33338416967194473  Uiso  ?  O
O1  1.0  0.4447403135963824  0.2797991657855922  0.35462037868953256  Uiso  ?  O
Ce1  1.0  0.3892118218433539  0.3073074682259242  0.32129124808300374  Uiso  ?  Ce
Ce1  1.0  0.4236770158713333  0.3141344932573352  0.2754123394159251  Uiso  ?  Ce
Ce1  1.0  0.4437563083194525  0.2794766541970388  0.3221702348650336  Uiso  ?  Ce
O1  1.0  0.42407457340967036  0.31201051745989816  0.30871794238085  Uiso  ?  O
O1  1.0  0.46026763828672346  0.31187262184199893  0.3335752734666304  Uiso  ?  O
O1  1.0  0.4471098817724101  0.2822279135917005  0.28155309115728794  Uiso  ?  O
O1  1.0  0.4812597923103885  0.2818349840855253  0.30741781088704817  Uiso  ?  O
O1  1.0  0.460752575595488  0.3110703648835803  0.25837031708130037  Uiso  ?  O
O1  1.0  0.49421919509667017  0.31421127689815764  0.2810552769382416  Uiso  ?  O
Ce1  1.0  0.4812892066889901  0.2853819857018298  0.26956995760624025  Uiso  ?  Ce
O1  1.0  0.49860818070293345  0.25481040202897687  0.2808198083791983  Uiso  ?  O
O1  1.0  0.4771343015578745  0.28393192667322625  0.23041699405736743  Uiso  ?  O
O1  1.0  0.5121972513562214  0.28762603347730054  0.25698750265267795  Uiso  ?  O
O1  1.0  0.4987906136749147  0.25518151595116867  0.2057390745528769  Uiso  ?  O
O1  1.0  0.5356131833265876  0.25801198288604255  0.23272745222020674  Uiso  ?  O
Ce1  1.0  0.4611392530801454  0.3123325324122352  0.2221373616383459  Uiso  ?  Ce
Ce1  1.0  0.49286483972586054  0.32025639816940654  0.1691282260467039  Uiso  ?  Ce
Ce1  1.0  0.5182374142698979  0.28673511372485777  0.21676096269366735  Uiso  ?  Ce
O1  1.0  0.49521681299451115  0.3182115886993582  0.20993036389768577  Uiso  ?  O
O1  1.0  0.529889193624854  0.3163337263012316  0.23014928690264527  Uiso  ?  O
O1  1.0  0.514991378151096  0.2887292697275389  0.18087267439544463  Uiso  ?  O
O1  1.0  0.5507369438178243  0.2881248725870803  0.2038169983786387  Uiso  ?  O
O1  1.0  0.5301270114556889  0.31626693459882355  0.15729146221265125  Uiso  ?  O
O1  1.0  0.5628457840381359  0.3205414193341795  0.1770324941056341  Uiso  ?  O
Ce1  1.0  0.49591224621031355  0.2559746044180907  0.16941033393180435  Uiso  ?  Ce
Ce1  1.0  0.5326445278026072  0.25899422587813775  0.11678138920784857  Uiso  ?  Ce
Ce1  1.0  0.5480944985442722  0.29101045250144847  0.1700392981345067  Uiso  ?  Ce
O1  1.0  0.5305305428088766  0.2595443317231197  0.15318227543977342  Uiso  ?  O
O1  1.0  0.5665495826065576  0.2592001983096685  0.1805131563060962  Uiso  ?  O
O1  1.0  0.5461811452380645  0.28902734736668084  0.12846681411306937  Uiso  ?  O
O1  1.0  0.5834680834031376  0.2908892000416525  0.156337985243346  Uiso  ?  O
O1  1.0  0.6016325066022986  0.26350135134664365  0.12679227169243806  Uiso  ?  O
Ce1  1.0  0.5283792226185114  0.3198900217392975  0.11980351226663667  Uiso  ?  Ce
Ce1  1.0  0.5833704001402388  0.29307879197531655  0.11310361665578074  Uiso  ?  Ce
O1  1.0  0.6002521996310519  0.32283317341052636  0.12815079502864163  Uiso  ?  O
Ce1  1.0  0.17320826585812682  0.25954893229351667  0.8794320593883208  Uiso  ?  Ce
Ce1  1.0  0.17037949870849975  0.3216566211590606  0.8813157166595703  Uiso  ?  Ce
O1  1.0  0.1908109078407131  0.289937480031293  0.8899447468368796  Uiso  ?  O
O1  1.0  0.17026616654087876  0.3188674852151397  0.8388056123692541  Uiso  ?  O
O1  1.0  0.20928903800980972  0.319302893280243  0.8637188262862434  Uiso  ?  O
O1  1.0  0.17429241863334077  0.25993111303861616  0.8385160053493538  Uiso  ?  O
O1  1.0  0.21096875648849045  0.2602645151998298  0.8639528664798793  Uiso  ?  O
O1  1.0  0.18929192770601472  0.2897622408161391  0.8150863141618357  Uiso  ?  O
O1  1.0  0.22555884938512585  0.2932185068356721  0.8394974428158709  Uiso  ?  O
Ce1  1.0  0.20609006808602556  0.3221080192510248  0.825147388143486  Uiso  ?  Ce
O1  1.0  0.20151921473839282  0.3263945870012138  0.7908141105606261  Uiso  ?  O
O1  1.0  0.23826523475729688  0.3245622580348844  0.8152405992510373  Uiso  ?  O
Ce1  1.0  0.20823270814805378  0.2640105649577201  0.8275475600023195  Uiso  ?  Ce
O1  1.0  0.20782011766530556  0.2622766581713858  0.7897967664035337  Uiso  ?  O
O1  1.0  0.24414270015213432  0.26399995114275576  0.8139836933047252  Uiso  ?  O
Ce1  1.0  0.1858579577388104  0.2899258817896122  0.7759664371304006  Uiso  ?  Ce
Ce1  1.0  0.22105306266320907  0.2950940813217911  0.726258160713105  Uiso  ?  Ce
Ce1  1.0  0.2420940380113488  0.2647107021721075  0.7788968186456617  Uiso  ?  Ce
Ce1  1.0  0.2397407023391147  0.32691923454556343  0.777781068571798  Uiso  ?  Ce
O1  1.0  0.22272153599242733  0.29392370289925973  0.7674117058982913  Uiso  ?  O
O1  1.0  0.2584881609590101  0.29250522974523335  0.7896625930037203  Uiso  ?  O
O1  1.0  0.23942292572874496  0.3260710087300742  0.7379194889282873  Uiso  ?  O
O1  1.0  0.2738516556826156  0.3276660138617165  0.7643816869253317  Uiso  ?  O
O1  1.0  0.24347118076984267  0.26171390761461466  0.7367723171170282  Uiso  ?  O
O1  1.0  0.2784571022217363  0.2663882293668238  0.7606316089384363  Uiso  ?  O
O1  1.0  0.25682967782472294  0.2976165284473581  0.7145380001426592  Uiso  ?  O
O1  1.0  0.2916439083303129  0.2966303365451295  0.7412905775883387  Uiso  ?  O
Ce1  1.0  0.2728464272616222  0.3288928520790548  0.7227335875234292  Uiso  ?  Ce
O1  1.0  0.27512336491123085  0.3288906952694682  0.6865436292269159  Uiso  ?  O
O1  1.0  0.3106262969329056  0.32705031338938506  0.7121983469521869  Uiso  ?  O
Ce1  1.0  0.27846257531192026  0.2651362738190179  0.7242719341423637  Uiso  ?  Ce
O1  1.0  0.27681582379827663  0.2658102552078501  0.6867180986817969  Uiso  ?  O
O1  1.0  0.31002114033709594  0.26824039435916985  0.7128665883102946  Uiso  ?  O
Ce1  1.0  0.25697873382534253  0.2974119899906919  0.6733854974911386  Uiso  ?  Ce
Ce1  1.0  0.2915149864083598  0.29846675715513254  0.6258339770368329  Uiso  ?  Ce
Ce1  1.0  0.30977731757254984  0.2717305812697293  0.6739764232018886  Uiso  ?  Ce
Ce1  1.0  0.307244046474009  0.3320073497109366  0.6791413321197474  Uiso  ?  Ce
O1  1.0  0.2901235318903491  0.29879783601804205  0.6617975094964113  Uiso  ?  O
O1  1.0  0.32603225688062565  0.30024991725666866  0.6902693559265733  Uiso  ?  O
O1  1.0  0.30859571604533076  0.3274317307217854  0.6357172931886824  Uiso  ?  O
O1  1.0  0.34207608667652517  0.33042989190501076  0.6602393525409012  Uiso  ?  O
O1  1.0  0.3142056549103353  0.2697237355157562  0.6361193950180903  Uiso  ?  O
O1  1.0  0.34861938045579116  0.27201179742688975  0.6593642452148695  Uiso  ?  O
O1  1.0  0.3284366869539971  0.3008490965745367  0.6119072308667829  Uiso  ?  O
O1  1.0  0.3645103592312789  0.30301754992187774  0.6376941773461717  Uiso  ?  O
Ce1  1.0  0.344516494884514  0.33284081018994804  0.6236984579170121  Uiso  ?  Ce
O1  1.0  0.3390061630340519  0.3348216850752559  0.5859281867932618  Uiso  ?  O
O1  1.0  0.3777342739649857  0.3337322462859232  0.6103737431924211  Uiso  ?  O
Ce1  1.0  0.34827640974132096  0.2688705508676567  0.6210870461085073  Uiso  ?  Ce
O1  1.0  0.34459297079265416  0.2722082499744846  0.5878087352998895  Uiso  ?  O
O1  1.0  0.37829241575503114  0.2736344118518371  0.610698432617674  Uiso  ?  O
Ce1  1.0  0.327730693423793  0.299933387587394  0.5746082068986655  Uiso  ?  Ce
Ce1  1.0  0.3581945770749107  0.3029019426747561  0.5258681782185487  Uiso  ?  Ce
Ce1  1.0  0.3786060063668984  0.2728239710554383  0.5724593464305164  Uiso  ?  Ce
Ce1  1.0  0.37604281263157363  0.33279470404773953  0.5753781642605198  Uiso  ?  Ce
O1  1.0  0.3608475072932792  0.30451721310415536  0.5630721837993977  Uiso  ?  O
O1  1.0  0.39402432251681724  0.30442073811688697  0.5851661243906244  Uiso  ?  O
O1  1.0  0.37427377330186556  0.3365100981324285  0.539083844666501  Uiso  ?  O
O1  1.0  0.41221224766515446  0.33725217954468545  0.5609905790062074  Uiso  ?  O
O1  1.0  0.3800489369245537  0.2776924524474776  0.5360121286295992  Uiso  ?  O
O1  1.0  0.4142284484413803  0.27538865288254627  0.5603906043063824  Uiso  ?  O
O1  1.0  0.3937772887871336  0.30598258756291075  0.5096250981325001  Uiso  ?  O
O1  1.0  0.4308671222789628  0.30517492653907935  0.5344676294949542  Uiso  ?  O
Ce1  1.0  0.41401689960662597  0.33762410195561277  0.520836223341011  Uiso  ?  Ce
Ce1  1.0  0.4134692800079187  0.273661099117936  0.5217448083752347  Uiso  ?  Ce
O1  1.0  0.41651667614668536  0.2782137652392224  0.48403048061368353  Uiso  ?  O
O1  1.0  0.4480379493957162  0.27945399581398367  0.5095643987632531  Uiso  ?  O
Ce1  1.0  0.39496491272993767  0.3071427775100099  0.47127056846633114  Uiso  ?  Ce
Ce1  1.0  0.42906988504843063  0.30949381640170637  0.4230995087124087  Uiso  ?  Ce
Ce1  1.0  0.44953464310392643  0.2795166704885936  0.47015797945536997  Uiso  ?  Ce
O1  1.0  0.4286482283676885  0.3098758890403797  0.4608935241489617  Uiso  ?  O
O1  1.0  0.4649350057342851  0.31122122198814395  0.4828257234210208  Uiso  ?  O
O1  1.0  0.44943516300442565  0.27827202527025774  0.4303278189519478  Uiso  ?  O
O1  1.0  0.4866179006058915  0.28081852694175374  0.4576554727450439  Uiso  ?  O
O1  1.0  0.46419483416571367  0.31253788925792964  0.4078135253406644  Uiso  ?  O
O1  1.0  0.4997939973172716  0.3160591070621507  0.4295977193442189  Uiso  ?  O
Ce1  1.0  0.4784771402935109  0.2826865181262929  0.41986213666975564  Uiso  ?  Ce
O1  1.0  0.48043432204599973  0.2855171981364697  0.3825184577496132  Uiso  ?  O
O1  1.0  0.5176419933841361  0.28545409488853496  0.40754254640020604  Uiso  ?  O
O1  1.0  0.5388717869070767  0.2564427535998044  0.38055400149499996  Uiso  ?  O
Ce1  1.0  0.4615455564704243  0.31208577937569293  0.37118560653008575  Uiso  ?  Ce
Ce1  1.0  0.49717815813522415  0.3150226706182242  0.3198470944889599  Uiso  ?  Ce
Ce1  1.0  0.5164483274941017  0.28584352098787036  0.3677247584482505  Uiso  ?  Ce
O1  1.0  0.49876145373713004  0.3142285815628792  0.3588348021575994  Uiso  ?  O
O1  1.0  0.5325628238974376  0.3160570867425265  0.3800862205594728  Uiso  ?  O
O1  1.0  0.5139818105341916  0.28609282743790115  0.33249099064800214  Uiso  ?  O
O1  1.0  0.5535467839827178  0.2908754002646729  0.3561030062773548  Uiso  ?  O
O1  1.0  0.5306912196634215  0.3175672233451325  0.3061064212261668  Uiso  ?  O
O1  1.0  0.5666182071685654  0.31733724594397855  0.33006847573806347  Uiso  ?  O
Ce1  1.0  0.4998825931582594  0.2550896066750191  0.3197587950625396  Uiso  ?  Ce
Ce1  1.0  0.5347554472152555  0.25461669598558323  0.2670911031623905  Uiso  ?  Ce
Ce1  1.0  0.5523070439131029  0.2867501050327227  0.3196510426731038  Uiso  ?  Ce
O1  1.0  0.5328555737286053  0.2564300740733133  0.307535054324553  Uiso  ?  O
O1  1.0  0.5701611416362038  0.260388287972672  0.32848019813461143  Uiso  ?  O
O1  1.0  0.5542450929320332  0.2903315851494673  0.28012033107691736  Uiso  ?  O
O1  1.0  0.5870714094712154  0.28797241261087725  0.30626890904355014  Uiso  ?  O
O1  1.0  0.5679770000528708  0.2583262961882785  0.2545125820715305  Uiso  ?  O
O1  1.0  0.6025194706700957  0.25684932379293207  0.282289497645238  Uiso  ?  O
Ce1  1.0  0.5325293242558564  0.3162917076070809  0.26577427764130185  Uiso  ?  Ce
Ce1  1.0  0.5686704599159117  0.3205649292092773  0.21660356493169572  Uiso  ?  Ce
Ce1  1.0  0.5858376913725252  0.2905025445284152  0.26512155477075044  Uiso  ?  Ce
O1  1.0  0.5643086185291588  0.3173805675304749  0.25531810379830877  Uiso  ?  O
O1  1.0  0.6037188191023588  0.3220816479180706  0.2785434158821215  Uiso  ?  O
O1  1.0  0.5857111698290932  0.29152473641697346  0.23086655673302406  Uiso  ?  O
O1  1.0  0.6202826210968835  0.29139494540278543  0.25403572831288407  Uiso  ?  O
O1  1.0  0.5996019875756369  0.3245131871712405  0.2061357581362611  Uiso  ?  O
O1  1.0  0.638481284871077  0.3241456542622502  0.22782389499247563  Uiso  ?  O
Ce1  1.0  0.5677048212301239  0.2572662632721624  0.21500975589347252  Uiso  ?  Ce
Ce1  1.0  0.6022215437025298  0.26118524871601817  0.16670569720282502  Uiso  ?  Ce
Ce1  1.0  0.6197006898947987  0.28986682889984755  0.21420747676701923  Uiso  ?  Ce
O1  1.0  0.6009086912732241  0.2589461600728131  0.20440630275061356  Uiso  ?  O
O1  1.0  0.6408565726812457  0.26321927511258353  0.22926080305096752  Uiso  ?  O
O1  1.0  0.6199919367172431  0.29148950115737776  0.17727152860864143  Uiso  ?  O
O1  1.0  0.654137934805047  0.29393851762671713  0.2044616772545251  Uiso  ?  O
O1  1.0  0.6379570139988083  0.2668852450811433  0.1515147733100273  Uiso  ?  O
O1  1.0  0.675873734289784  0.2642658638236913  0.17631318258435033  Uiso  ?  O
Ce1  1.0  0.5995451138414714  0.32350124993624124  0.16825053919067307  Uiso  ?  Ce
Ce1  1.0  0.6527104281545565  0.2945255687247018  0.1670804742778208  Uiso  ?  Ce
O1  1.0  0.6358282970031051  0.3250619566731743  0.15342587592319404  Uiso  ?  O
O1  1.0  0.6696580653747696  0.3244062494051172  0.18092159901934535  Uiso  ?  O
O1  1.0  0.6511584422240569  0.29273854093649077  0.132763758246769  Uiso  ?  O
O1  1.0  0.6904110334717417  0.29786960426628295  0.14990823471641224  Uiso  ?  O
Ce1  1.0  0.6362021864549786  0.26447747784412073  0.11404443070432978  Uiso  ?  Ce
Ce1  1.0  0.22659738584424635  0.2939770318834762  0.8750657568921745  Uiso  ?  Ce
O1  1.0  0.24161233411897245  0.3245670288142025  0.891185233081842  Uiso  ?  O
O1  1.0  0.2459000821421027  0.259602358404183  0.8862242227632828  Uiso  ?  O
O1  1.0  0.2578390555644977  0.2950912904671513  0.8642209339772515  Uiso  ?  O
O1  1.0  0.29746757715726274  0.2942452502298083  0.8906419531058893  Uiso  ?  O
Ce1  1.0  0.2759559145785614  0.32684869401712235  0.8746129407904769  Uiso  ?  Ce
O1  1.0  0.275932882171506  0.3252562858386458  0.8401773605587217  Uiso  ?  O
O1  1.0  0.31150350369493846  0.32429347001563796  0.8618766848319733  Uiso  ?  O
Ce1  1.0  0.2805261596521223  0.26354561567753026  0.8785755221793856  Uiso  ?  Ce
O1  1.0  0.2807728296782653  0.2645447167198942  0.8388817986992785  Uiso  ?  O
O1  1.0  0.316107646082038  0.26698050902822373  0.8602995811869008  Uiso  ?  O
Ce1  1.0  0.25939138194096095  0.2926385486231955  0.8265780066361886  Uiso  ?  Ce
Ce1  1.0  0.2948300371772686  0.2951569279446421  0.7735186282440015  Uiso  ?  Ce
Ce1  1.0  0.3152001826888792  0.26950458879712874  0.8277171768768131  Uiso  ?  Ce
Ce1  1.0  0.30776078036190085  0.32509618705408416  0.8216959661190407  Uiso  ?  Ce
O1  1.0  0.29774871381274803  0.29837689052610156  0.8109227313873988  Uiso  ?  O
O1  1.0  0.3319135734931493  0.2979596567987668  0.8384246764306685  Uiso  ?  O
O1  1.0  0.31060318939790843  0.3319588623169918  0.7879557872353469  Uiso  ?  O
O1  1.0  0.3467038763922625  0.33219594979886147  0.8107634626282172  Uiso  ?  O
O1  1.0  0.316668485780502  0.26788584570855495  0.7852914158059885  Uiso  ?  O
O1  1.0  0.350000177164317  0.2687060724763464  0.8113887490117061  Uiso  ?  O
O1  1.0  0.3326884136206527  0.29800741448713075  0.7626092825546844  Uiso  ?  O
O1  1.0  0.36754152532648265  0.3019083553777125  0.7871438473659098  Uiso  ?  O
Ce1  1.0  0.34441927234682074  0.33321055246764236  0.7726555533507942  Uiso  ?  Ce
O1  1.0  0.34471156333388303  0.33384872616549444  0.7354179104971522  Uiso  ?  O
O1  1.0  0.3797593795261626  0.33342903035688554  0.7603494382478919  Uiso  ?  O
Ce1  1.0  0.3478450083936277  0.2681349584674979  0.7729575506427024  Uiso  ?  Ce
O1  1.0  0.3489171073832951  0.26997381317103547  0.7362625591136706  Uiso  ?  O
O1  1.0  0.3845767196522015  0.27206050054346975  0.7630940774499718  Uiso  ?  O
Ce1  1.0  0.32930506547159666  0.3000998088764165  0.7238722570526184  Uiso  ?  Ce
Ce1  1.0  0.36104063405989756  0.2999495064983465  0.6720412835224525  Uiso  ?  Ce
Ce1  1.0  0.3834035721894818  0.2700775683915264  0.7220081693538373  Uiso  ?  Ce
Ce1  1.0  0.37935211904460747  0.3335708795401885  0.7227606047947422  Uiso  ?  Ce
O1  1.0  0.3637936209735785  0.3003985577529303  0.7111591506099829  Uiso  ?  O
O1  1.0  0.3981890590689756  0.30403109957840274  0.7372150256410706  Uiso  ?  O
O1  1.0  0.3809231742843231  0.3360774684270559  0.6869391590057592  Uiso  ?  O
O1  1.0  0.41327551602881096  0.33474488141311604  0.7095728170051018  Uiso  ?  O
O1  1.0  0.3818266302202169  0.27295394823306346  0.6846934757814201  Uiso  ?  O
O1  1.0  0.42101759203602934  0.27493244458838845  0.7125519734754908  Uiso  ?  O
O1  1.0  0.3974549580862541  0.30542332561369173  0.6582973621665507  Uiso  ?  O
O1  1.0  0.43400390048064597  0.30593721128821355  0.6865643998515575  Uiso  ?  O
Ce1  1.0  0.4134764739458345  0.3373188404368813  0.6713663357941952  Uiso  ?  Ce
O1  1.0  0.4150343188940331  0.3356826629814923  0.6349614356404693  Uiso  ?  O
O1  1.0  0.45243396086600973  0.34055667491456754  0.657882826124702  Uiso  ?  O
Ce1  1.0  0.41512705749972323  0.2737718217716568  0.6727748543293287  Uiso  ?  Ce
O1  1.0  0.4154995925947937  0.2752350168698188  0.6329225738378794  Uiso  ?  O
O1  1.0  0.4550328775984823  0.2755884654545035  0.6575436466946185  Uiso  ?  O
Ce1  1.0  0.39773931371635013  0.3021437600099138  0.6243409361630612  Uiso  ?  Ce
Ce1  1.0  0.4304744300375402  0.3080195096867459  0.5706549718714675  Uiso  ?  Ce
Ce1  1.0  0.4516459253671673  0.2745442464417793  0.6193113648156567  Uiso  ?  Ce
O1  1.0  0.43361856412281774  0.30704115287906414  0.609989289726705  Uiso  ?  O
O1  1.0  0.4694499842504791  0.3048464473262026  0.6332977786673913  Uiso  ?  O
O1  1.0  0.45294959312775107  0.2762000762010014  0.5846770169412332  Uiso  ?  O
O1  1.0  0.488968733238941  0.27827355083180083  0.6103661044208639  Uiso  ?  O
O1  1.0  0.4660069213930104  0.309159550391116  0.5565701386269516  Uiso  ?  O
O1  1.0  0.5023872212151904  0.3087609023393301  0.5814235552516762  Uiso  ?  O
Ce1  1.0  0.4851319878913528  0.28258485238933817  0.5727425150909399  Uiso  ?  Ce
O1  1.0  0.48547184256236564  0.2815815163841186  0.5354387268982664  Uiso  ?  O
O1  1.0  0.5202272642841  0.2825191211315999  0.5592500291635556  Uiso  ?  O
Ce1  1.0  0.46350818873846616  0.310199610372031  0.5233147524202295  Uiso  ?  Ce
Ce1  1.0  0.5018537717413692  0.31393377756491747  0.4699867286895485  Uiso  ?  Ce
Ce1  1.0  0.5210699382943281  0.28170275751669877  0.5189853017996038  Uiso  ?  Ce
O1  1.0  0.5010210618504365  0.31254500015941217  0.5053249957951903  Uiso  ?  O
O1  1.0  0.5361129056582477  0.3128759791529521  0.5345883385146917  Uiso  ?  O
O1  1.0  0.5189309361542841  0.28282734717598396  0.4792159571173607  Uiso  ?  O
O1  1.0  0.5549159130383758  0.28452563980449863  0.5073164778290425  Uiso  ?  O
O1  1.0  0.5342678225783507  0.31558704363666235  0.45619499333318947  Uiso  ?  O
O1  1.0  0.5688771615508982  0.31512839743299753  0.4786924800105186  Uiso  ?  O
Ce1  1.0  0.537576311618784  0.25374110732966015  0.4162799459088006  Uiso  ?  Ce
Ce1  1.0  0.5526283359109915  0.28622923595582317  0.4669287839615591  Uiso  ?  Ce
O1  1.0  0.5384083066981349  0.2533264259836107  0.4585718002826792  Uiso  ?  O
O1  1.0  0.576270948004437  0.2548954823146968  0.48158067975396224  Uiso  ?  O
O1  1.0  0.5555787750544205  0.2847306934748514  0.4325715680015242  Uiso  ?  O
O1  1.0  0.5910468859755579  0.2881932294139782  0.4543072894781454  Uiso  ?  O
O1  1.0  0.5753899929142179  0.25647759487986443  0.4032646817906424  Uiso  ?  O
O1  1.0  0.6101686147339972  0.2556723203610844  0.4295181769113462  Uiso  ?  O
Ce1  1.0  0.535826625447492  0.31408151712757043  0.4172216136132029  Uiso  ?  Ce
Ce1  1.0  0.5704354870267928  0.31822959254327116  0.36913517499397736  Uiso  ?  Ce
Ce1  1.0  0.5882005126093978  0.2875271467646655  0.41898945000126864  Uiso  ?  Ce
O1  1.0  0.5714797892810032  0.31446497356841496  0.4078980537193751  Uiso  ?  O
O1  1.0  0.6078740111350348  0.31907240575475976  0.4312137791697262  Uiso  ?  O
O1  1.0  0.5873559605831106  0.2886679867951687  0.38042695764644907  Uiso  ?  O
O1  1.0  0.6267672297982007  0.28620848010116806  0.4046675456021409  Uiso  ?  O
O1  1.0  0.6061364137246886  0.3210110412434198  0.35326342003933503  Uiso  ?  O
O1  1.0  0.6374284710299417  0.320717385920097  0.37747606100595116  Uiso  ?  O
Ce1  1.0  0.5708721391690015  0.2557734475402396  0.367223363453491  Uiso  ?  Ce
Ce1  1.0  0.6054048817399034  0.2575558062118094  0.31685143726629833  Uiso  ?  Ce
Ce1  1.0  0.6256196486827629  0.29290503508991955  0.3659721261316858  Uiso  ?  Ce
O1  1.0  0.6077992560634026  0.2602373219342446  0.3543450360107556  Uiso  ?  O
O1  1.0  0.6417662385650588  0.25817786663054315  0.37880296738712643  Uiso  ?  O
O1  1.0  0.6219262088392348  0.2916560966817389  0.33001478528411593  Uiso  ?  O
O1  1.0  0.6596433929889425  0.28974341693074723  0.3525198859510943  Uiso  ?  O
O1  1.0  0.6404825775472054  0.26210197108136996  0.30323243835665414  Uiso  ?  O
O1  1.0  0.6773835056286556  0.26203222359055767  0.3279526788123948  Uiso  ?  O
Ce1  1.0  0.6031406434018992  0.32229897684038145  0.31904427657816864  Uiso  ?  Ce
Ce1  1.0  0.6384343449290931  0.3204376773530102  0.2668028228997998  Uiso  ?  Ce
Ce1  1.0  0.6580608000734748  0.29070923480585337  0.3120858806003022  Uiso  ?  Ce
O1  1.0  0.6396720692175387  0.32083715029399895  0.30646579391072526  Uiso  ?  O
O1  1.0  0.6716015172440688  0.32373046839153474  0.32849712051365787  Uiso  ?  O
O1  1.0  0.6586698298112145  0.29549830581494496  0.27986029439363397  Uiso  ?  O
O1  1.0  0.6955943591585763  0.29463313640069644  0.3043507324232008  Uiso  ?  O
O1  1.0  0.6721164901163924  0.32484121643167346  0.25065195655093614  Uiso  ?  O
O1  1.0  0.7089516136097108  0.3252182660415412  0.27674285452783154  Uiso  ?  O
Ce1  1.0  0.6410295063043125  0.26143061572968146  0.26906892500059465  Uiso  ?  Ce
Ce1  1.0  0.6754791250880483  0.2656121266675082  0.21456696009365048  Uiso  ?  Ce
Ce1  1.0  0.6921202818787489  0.29305100323050837  0.26345277981912313  Uiso  ?  Ce
O1  1.0  0.6757497546102308  0.2634074305531933  0.25227791020192214  Uiso  ?  O
O1  1.0  0.713295814798057  0.26523894443280144  0.2771852347674632  Uiso  ?  O
O1  1.0  0.6938646283040405  0.29341775994134  0.2286022960057079  Uiso  ?  O
O1  1.0  0.7282232410477444  0.29890710111108404  0.24901516856235392  Uiso  ?  O
O1  1.0  0.7108576763873891  0.2658624900269398  0.2015710331749658  Uiso  ?  O
O1  1.0  0.7465414595985128  0.26625914383879323  0.22612477874867304  Uiso  ?  O
Ce1  1.0  0.6690664651860208  0.32782799792047346  0.21605074010363773  Uiso  ?  Ce
Ce1  1.0  0.7253454437826701  0.29776731350622787  0.21426740713167602  Uiso  ?  Ce
O1  1.0  0.7052066779112148  0.3274957676690363  0.20166072323831435  Uiso  ?  O
O1  1.0  0.7412243390512271  0.3306120621140019  0.22899397892857204  Uiso  ?  O
O1  1.0  0.724984250278584  0.2994189840332183  0.17380609714914624  Uiso  ?  O
O1  1.0  0.7608509875056464  0.2976238231880588  0.20197385903414605  Uiso  ?  O
Ce1  1.0  0.7080678237688265  0.26530164030163955  0.1636083650436595  Uiso  ?  Ce
O1  1.0  0.34855291446190845  0.3292128620097481  0.8892142910044158  Uiso  ?  O
O1  1.0  0.3518652519121722  0.2690812631979693  0.8885211546609303  Uiso  ?  O
Ce1  1.0  0.33335101087466606  0.30002353076315424  0.8752914074955823  Uiso  ?  Ce
Ce1  1.0  0.36581387156185374  0.2986909205165193  0.8245838602293531  Uiso  ?  Ce
Ce1  1.0  0.384948008246389  0.2666450791164243  0.8733833047561996  Uiso  ?  Ce
Ce1  1.0  0.38407139331891643  0.3335912517107104  0.873794914389085  Uiso  ?  Ce
O1  1.0  0.3663433370933402  0.2985094655350912  0.8606193245245082  Uiso  ?  O
O1  1.0  0.4041419755096554  0.29858921108765124  0.887267882281203  Uiso  ?  O
O1  1.0  0.38402488282761504  0.332378222204066  0.835657082063556  Uiso  ?  O
O1  1.0  0.41872640434366176  0.3337198344157195  0.8594587540109818  Uiso  ?  O
O1  1.0  0.38342991239784485  0.2718301698892028  0.8361858527645104  Uiso  ?  O
O1  1.0  0.4193942798781069  0.2709102994831648  0.8596622915788961  Uiso  ?  O
O1  1.0  0.40036621345129075  0.3037413908267527  0.8131486307175814  Uiso  ?  O
O1  1.0  0.43743719490990535  0.30448635838491694  0.8346584624914377  Uiso  ?  O
Ce1  1.0  0.41728198808999206  0.33457760253944135  0.8235467553421989  Uiso  ?  Ce
O1  1.0  0.41616568098709256  0.33321079357549516  0.785731144679941  Uiso  ?  O
O1  1.0  0.45415520609571025  0.33449776257281594  0.8097095137621926  Uiso  ?  O
Ce1  1.0  0.42054699247974137  0.27085059367932907  0.8238436567936176  Uiso  ?  Ce
O1  1.0  0.4200298995227292  0.27273513659215487  0.7853732761788298  Uiso  ?  O
O1  1.0  0.4544459664891262  0.2755656962624491  0.8079707005667319  Uiso  ?  O
Ce1  1.0  0.39834571777485506  0.30101508778092  0.7736908126575159  Uiso  ?  Ce
Ce1  1.0  0.43355940446446123  0.30560245541571146  0.7199224333563459  Uiso  ?  Ce
Ce1  1.0  0.4552600457718689  0.2763761378472374  0.772893712472735  Uiso  ?  Ce
Ce1  1.0  0.4525928256310276  0.3365578961515055  0.7715265829573302  Uiso  ?  Ce
O1  1.0  0.4368842542382254  0.30442949868322366  0.7607428978189168  Uiso  ?  O
O1  1.0  0.47325164962779975  0.3087294476611626  0.784089899611686  Uiso  ?  O
O1  1.0  0.4533810877333146  0.3388636278959619  0.7368506719468648  Uiso  ?  O
O1  1.0  0.45311755014271926  0.274229183461663  0.7322458919400451  Uiso  ?  O
O1  1.0  0.4901834065401026  0.2805954775841939  0.757486262333285  Uiso  ?  O
O1  1.0  0.46870624614811307  0.30699076968986755  0.7080256679502369  Uiso  ?  O
O1  1.0  0.5065388600294736  0.31051649909399576  0.7300687930820701  Uiso  ?  O
Ce1  1.0  0.49016828985739486  0.2774474888569623  0.7187785726106891  Uiso  ?  Ce
O1  1.0  0.48727045927541296  0.27819091169441845  0.6810894206302118  Uiso  ?  O
O1  1.0  0.5264524211461046  0.2788823982128475  0.7039936471939285  Uiso  ?  O
Ce1  1.0  0.4680286712824196  0.30769080322067505  0.6717247838038689  Uiso  ?  Ce
Ce1  1.0  0.5015495759558818  0.3120275288671834  0.621585211457663  Uiso  ?  Ce
Ce1  1.0  0.524088852216846  0.27902599619413004  0.6688241327699512  Uiso  ?  Ce
O1  1.0  0.5033205411508253  0.3086569524870379  0.6559522538006671  Uiso  ?  O
O1  1.0  0.5389097039018618  0.3128359568959177  0.6780117381272132  Uiso  ?  O
O1  1.0  0.5236372666105259  0.28367266465519725  0.6310393678893943  Uiso  ?  O
O1  1.0  0.5582785572437271  0.2817576409928268  0.6557953312703853  Uiso  ?  O
O1  1.0  0.5383260596769978  0.3129103156220543  0.6058399121902589  Uiso  ?  O
O1  1.0  0.5738780037665728  0.31644155958420167  0.632412377639872  Uiso  ?  O
Ce1  1.0  0.5553976403666909  0.2823959485810505  0.6216707914250069  Uiso  ?  Ce
O1  1.0  0.5791551010976468  0.25032679661453333  0.6322640091749299  Uiso  ?  O
O1  1.0  0.5583740699864771  0.28361648697285124  0.5837699225678762  Uiso  ?  O
O1  1.0  0.5918564391847579  0.2859557647555537  0.6073587939413267  Uiso  ?  O
O1  1.0  0.5776864480659133  0.25273244111815985  0.5580803298455363  Uiso  ?  O
O1  1.0  0.6132632999572386  0.2543419671130705  0.5767857703207108  Uiso  ?  O
Ce1  1.0  0.5397049408333215  0.31476676327500464  0.5689983515228186  Uiso  ?  Ce
Ce1  1.0  0.5718920434891679  0.31690787469890636  0.5195421389023968  Uiso  ?  Ce
Ce1  1.0  0.5927991645178511  0.28440392134095954  0.5673831699167068  Uiso  ?  Ce
O1  1.0  0.573020326498645  0.31450456838840923  0.5551775880476799  Uiso  ?  O
O1  1.0  0.6060170800963851  0.3189194959571522  0.5794842712928602  Uiso  ?  O
O1  1.0  0.5941227124713849  0.2852411091026344  0.5292184049016943  Uiso  ?  O
O1  1.0  0.6302636572418313  0.2868795815154511  0.5557492647417819  Uiso  ?  O
O1  1.0  0.6073478149080397  0.3173797565362748  0.5059624351281753  Uiso  ?  O
O1  1.0  0.6446880286036967  0.31740394677777956  0.5286368776068249  Uiso  ?  O
Ce1  1.0  0.5747252126616044  0.2519545548216763  0.5170135589809145  Uiso  ?  Ce
Ce1  1.0  0.6079161402554175  0.25452442829242894  0.46812619606766254  Uiso  ?  Ce
Ce1  1.0  0.6286420642285455  0.28731849538427995  0.5162725568112577  Uiso  ?  Ce
O1  1.0  0.6107069715020176  0.2562655472338909  0.5037803963520687  Uiso  ?  O
O1  1.0  0.6468392262147585  0.2572724058941771  0.530762515020864  Uiso  ?  O
O1  1.0  0.6237179119641351  0.2874786337726454  0.48000447755146247  Uiso  ?  O
O1  1.0  0.6611270611030703  0.2920195906018498  0.4995015362861047  Uiso  ?  O
O1  1.0  0.6444060476444895  0.25911342339942967  0.4524244312418517  Uiso  ?  O
O1  1.0  0.6798016125959707  0.26138330434951307  0.4793706068453311  Uiso  ?  O
Ce1  1.0  0.6100164575797612  0.3175673459383984  0.4674330233244767  Uiso  ?  Ce
Ce1  1.0  0.6401593583909593  0.3199646884720536  0.41716976811669765  Uiso  ?  Ce
Ce1  1.0  0.6609921209414829  0.29328589721565546  0.4663560501088153  Uiso  ?  Ce
O1  1.0  0.6391128757407356  0.31959904825054386  0.4548017426484407  Uiso  ?  O
O1  1.0  0.6763764245810774  0.32121408010022917  0.4807285153990621  Uiso  ?  O
O1  1.0  0.6584680377951285  0.2899761533555313  0.4293287579808552  Uiso  ?  O
O1  1.0  0.6982858682595221  0.28766338533888547  0.44967149754436864  Uiso  ?  O
O1  1.0  0.6735958635435177  0.32120084573485913  0.40117275399847085  Uiso  ?  O
O1  1.0  0.7121170403690381  0.32392043904390305  0.42597734085085587  Uiso  ?  O
Ce1  1.0  0.644376833420932  0.2607159431869449  0.4169495816473317  Uiso  ?  Ce
Ce1  1.0  0.6796103931204686  0.2607473277934544  0.36675621818654847  Uiso  ?  Ce
Ce1  1.0  0.6975018958369799  0.2924089325912147  0.41686863508076893  Uiso  ?  Ce
O1  1.0  0.6780981856981447  0.2629532805084249  0.40511008064040577  Uiso  ?  O
O1  1.0  0.7122178200172357  0.26410773322923053  0.42320919169069565  Uiso  ?  O
O1  1.0  0.6947402536917122  0.2940932096174825  0.37350947461379697  Uiso  ?  O
O1  1.0  0.7289373396145334  0.2947560360439553  0.40450145716913377  Uiso  ?  O
O1  1.0  0.7108083957657078  0.2652907588290112  0.3533689046429933  Uiso  ?  O
O1  1.0  0.7493644363940595  0.26659754634824506  0.3777064334930476  Uiso  ?  O
Ce1  1.0  0.6732705339681224  0.3221764368261999  0.3653312624687222  Uiso  ?  Ce
Ce1  1.0  0.7091897855525932  0.3284519316161415  0.31410111814348535  Uiso  ?  Ce
Ce1  1.0  0.731527075141001  0.2944302289763218  0.36630207506934426  Uiso  ?  Ce
O1  1.0  0.7066469440830473  0.32616725821127246  0.35399664025492067  Uiso  ?  O
O1  1.0  0.7447523721741685  0.3256125415106118  0.37655164455273804  Uiso  ?  O
O1  1.0  0.7254997163337107  0.2959629442468254  0.3283848942180968  Uiso  ?  O
O1  1.0  0.7664889017914722  0.29690977031533516  0.3506169041284074  Uiso  ?  O
O1  1.0  0.7439998670126343  0.32654750305799696  0.3040101979831729  Uiso  ?  O
Ce1  1.0  0.7145961730319066  0.2642056300806378  0.31223432325718903  Uiso  ?  Ce
Ce1  1.0  0.7446203725266363  0.26624940116565815  0.2627741479029898  Uiso  ?  Ce
Ce1  1.0  0.7597221665322628  0.3001762095064611  0.31530759351206683  Uiso  ?  Ce
O1  1.0  0.7492649734959762  0.2669726031839772  0.30152360978091114  Uiso  ?  O
O1  1.0  0.7640051677135865  0.29857756629600923  0.2755884271801642  Uiso  ?  O
Ce1  1.0  0.7420781128916992  0.33085139183267437  0.2667614683340789  Uiso  ?  Ce
Ce1  1.0  0.435871714414681  0.30499051649919473  0.8708055751649375  Uiso  ?  Ce
O1  1.0  0.4527188911261271  0.3339698387348502  0.8862670455294195  Uiso  ?  O
O1  1.0  0.45752226287627373  0.27407600603290294  0.8827529605345003  Uiso  ?  O
O1  1.0  0.47462175567003145  0.30423411307788417  0.8587985340400339  Uiso  ?  O
O1  1.0  0.5074862498393091  0.30973220592017614  0.8829037538600865  Uiso  ?  O
Ce1  1.0  0.4918029178520613  0.33796187608807093  0.8726720139692806  Uiso  ?  Ce
O1  1.0  0.49121576487443674  0.3383001845747663  0.8356016914415404  Uiso  ?  O
Ce1  1.0  0.49464713649237185  0.2755683682685858  0.8752846666978447  Uiso  ?  Ce
O1  1.0  0.49121324012501916  0.2756105651920688  0.8334537207650944  Uiso  ?  O
O1  1.0  0.5274630978153556  0.27779123210627443  0.8583002977356715  Uiso  ?  O
Ce1  1.0  0.46912450749535894  0.3043234051348406  0.820423169252679  Uiso  ?  Ce
Ce1  1.0  0.5061325570492999  0.31073885863822764  0.7694654289616674  Uiso  ?  Ce
Ce1  1.0  0.5267108277952276  0.2805910213758278  0.821292884746332  Uiso  ?  Ce
O1  1.0  0.5076061953498165  0.30629757822594134  0.8096796375317373  Uiso  ?  O
O1  1.0  0.544003609248038  0.30976608424874624  0.8313203909252059  Uiso  ?  O
O1  1.0  0.5294325987900219  0.2811486743738525  0.7834069088176152  Uiso  ?  O
O1  1.0  0.5587292332976995  0.28071396642971747  0.8066436376979587  Uiso  ?  O
O1  1.0  0.5405398042575971  0.3126192996424292  0.7548207813229187  Uiso  ?  O
O1  1.0  0.577483756350456  0.3149147198167261  0.7825688656996056  Uiso  ?  O
Ce1  1.0  0.5602195521272014  0.27963652932743027  0.7657523001894814  Uiso  ?  Ce
O1  1.0  0.5575230566876241  0.28162103347140455  0.7318851217942484  Uiso  ?  O
O1  1.0  0.5965088757942199  0.2808723632904689  0.7555843583244759  Uiso  ?  O
O1  1.0  0.6165694477111069  0.2537894798359028  0.7283695384045838  Uiso  ?  O
Ce1  1.0  0.5415689875487418  0.3115140321812155  0.7187181160820871  Uiso  ?  Ce
Ce1  1.0  0.5750429132711697  0.3117659359323892  0.6695863505774345  Uiso  ?  Ce
Ce1  1.0  0.5945915960276741  0.28305100184733534  0.7177767658705894  Uiso  ?  Ce
O1  1.0  0.5741639609740609  0.3134224608573871  0.7061094143123021  Uiso  ?  O
O1  1.0  0.6138678767033333  0.31534147943218255  0.7310680995845332  Uiso  ?  O
O1  1.0  0.5941626631812558  0.28378779667155263  0.6805983866439419  Uiso  ?  O
O1  1.0  0.6304644667617363  0.2861208327971752  0.7077315911043474  Uiso  ?  O
O1  1.0  0.6103331593641639  0.3154824484001289  0.6542527214049763  Uiso  ?  O
O1  1.0  0.645140442706464  0.3168546263269512  0.6787452496526153  Uiso  ?  O
Ce1  1.0  0.6131977146245227  0.2532535256166284  0.6165560902551462  Uiso  ?  Ce
Ce1  1.0  0.6306433240998166  0.2855082107182179  0.6679680092498992  Uiso  ?  Ce
O1  1.0  0.6136647093842296  0.25220446010773834  0.655729004246171  Uiso  ?  O
O1  1.0  0.6463462007167038  0.254494243140078  0.6817750808976067  Uiso  ?  O
O1  1.0  0.6289955042886931  0.2898211906696653  0.6326344051584238  Uiso  ?  O
O1  1.0  0.6655545718827466  0.28764602087879326  0.6553409774276708  Uiso  ?  O
O1  1.0  0.6487227554342464  0.2568329718458644  0.6038879589478344  Uiso  ?  O
O1  1.0  0.6816351292003843  0.25891191083278337  0.6272880228625749  Uiso  ?  O
Ce1  1.0  0.608483307072539  0.31508607642750164  0.6190907943402676  Uiso  ?  Ce
Ce1  1.0  0.6421404825222037  0.3178004440415542  0.5676355152731194  Uiso  ?  Ce
Ce1  1.0  0.6631320661049989  0.289316210802475  0.6150804332157405  Uiso  ?  Ce
O1  1.0  0.6434664903407425  0.3195427501535424  0.602865894077282  Uiso  ?  O
O1  1.0  0.6805178762102634  0.31870448545429436  0.628781289365169  Uiso  ?  O
O1  1.0  0.664032105892572  0.2889276190489552  0.5799125995997998  Uiso  ?  O
O1  1.0  0.6994368344082551  0.2899045484214871  0.6017573487958627  Uiso  ?  O
O1  1.0  0.678332512020012  0.32153447671237656  0.554587161687785  Uiso  ?  O
O1  1.0  0.7142408828162816  0.3215116741316006  0.5794323668319717  Uiso  ?  O
Ce1  1.0  0.6477076666293513  0.25719740089533777  0.5678541244856801  Uiso  ?  Ce
Ce1  1.0  0.6807880065059091  0.25996411080157633  0.5146906320308277  Uiso  ?  Ce
Ce1  1.0  0.6987034290986193  0.2925883246792655  0.5666406413585566  Uiso  ?  Ce
O1  1.0  0.6821227174307117  0.26092726042002773  0.5517155228353603  Uiso  ?  O
O1  1.0  0.719014687403955  0.25991337226881805  0.5745706408561618  Uiso  ?  O
O1  1.0  0.6949097142631726  0.2920026886474482  0.5257973024288578  Uiso  ?  O
O1  1.0  0.7346621603815747  0.2942202129826287  0.5526891533532432  Uiso  ?  O
O1  1.0  0.71572661415613  0.2638662899406773  0.5025792810185973  Uiso  ?  O
O1  1.0  0.7525267960814249  0.2619701449825998  0.5259093475920259  Uiso  ?  O
Ce1  1.0  0.6792071212367728  0.3221524085233365  0.5148378692450918  Uiso  ?  Ce
Ce1  1.0  0.7111557221401893  0.3241978712076588  0.4688506478458273  Uiso  ?  Ce
Ce1  1.0  0.7333788881254302  0.29292367535242037  0.512774081326022  Uiso  ?  Ce
O1  1.0  0.7115760762186593  0.323064202725126  0.5060530578209153  Uiso  ?  O
O1  1.0  0.7506853763440381  0.32251519911829213  0.5280165604841617  Uiso  ?  O
O1  1.0  0.7297811051880652  0.2929494742285926  0.47794776326157395  Uiso  ?  O
O1  1.0  0.7480546161116634  0.32542828731902596  0.45181425009041015  Uiso  ?  O
Ce1  1.0  0.7149770744444293  0.2664482920315265  0.4654358225828708  Uiso  ?  Ce
Ce1  1.0  0.7518384420690222  0.2648377586531647  0.41128749751418436  Uiso  ?  Ce
Ce1  1.0  0.768995847589225  0.29765454699956917  0.4634456274799743  Uiso  ?  Ce
O1  1.0  0.750174071666902  0.26268032323401197  0.4513307398274276  Uiso  ?  O
O1  1.0  0.7696059407774521  0.29727974795840617  0.4260267042419168  Uiso  ?  O
Ce1  1.0  0.745771249913953  0.3264676417414516  0.41531017212505744  Uiso  ?  Ce
O1  1.0  0.5624191611259872  0.27826113357531096  0.8803508134924154  Uiso  ?  O
Ce1  1.0  0.5431026710152506  0.30949313333149625  0.8683960656787788  Uiso  ?  Ce
Ce1  1.0  0.579150164224521  0.31223045574932584  0.8196799478372735  Uiso  ?  Ce
Ce1  1.0  0.5994280016301127  0.2777217715631906  0.8677262597963467  Uiso  ?  Ce
O1  1.0  0.5797207996038076  0.30908263413168235  0.8554536791935632  Uiso  ?  O
O1  1.0  0.6187093191173315  0.3140043376813192  0.8836228628747013  Uiso  ?  O
O1  1.0  0.5998146840036068  0.2831919002259047  0.8296167303552767  Uiso  ?  O
O1  1.0  0.633773863453827  0.2874076376513181  0.8571868632731253  Uiso  ?  O
O1  1.0  0.6135659047155823  0.3151647314703556  0.8059818788961222  Uiso  ?  O
O1  1.0  0.6474990021815775  0.3154949032245784  0.8308447362369442  Uiso  ?  O
Ce1  1.0  0.6157041923878777  0.2552660897101929  0.7687264587717723  Uiso  ?  Ce
Ce1  1.0  0.6289442907009817  0.2804384728197745  0.8192662770641257  Uiso  ?  Ce
O1  1.0  0.6530178239980005  0.25380772348484526  0.8316606558482994  Uiso  ?  O
O1  1.0  0.6340458126567113  0.2859563871933934  0.7800244422347253  Uiso  ?  O
O1  1.0  0.6683457525024371  0.2880427294091149  0.8024700937498164  Uiso  ?  O
O1  1.0  0.651877916326586  0.2579385445861144  0.755442738788435  Uiso  ?  O
O1  1.0  0.6885466132790442  0.2552583143464777  0.7811545052653482  Uiso  ?  O
Ce1  1.0  0.6147726021026143  0.313606758987505  0.7711373138010581  Uiso  ?  Ce
Ce1  1.0  0.6464828910452134  0.31763305008132053  0.7188919355407722  Uiso  ?  Ce
Ce1  1.0  0.6655261237568526  0.2852985798235318  0.7669094345012399  Uiso  ?  Ce
O1  1.0  0.6449785999251273  0.31636975014331875  0.7543931061500007  Uiso  ?  O
O1  1.0  0.6840241490475932  0.316690675608859  0.7812689063804523  Uiso  ?  O
O1  1.0  0.6675481759332349  0.2860048038958573  0.7305747599478933  Uiso  ?  O
O1  1.0  0.7027253482560444  0.28964650629444216  0.7514049543502234  Uiso  ?  O
O1  1.0  0.6802489489121544  0.3178909863220187  0.7058126042346545  Uiso  ?  O
O1  1.0  0.7189364058942114  0.32019282878510946  0.7287877495388964  Uiso  ?  O
Ce1  1.0  0.6504678499680273  0.25481621054587555  0.7166958061908479  Uiso  ?  Ce
Ce1  1.0  0.6828677774725553  0.25689938454714684  0.6660063463832187  Uiso  ?  Ce
Ce1  1.0  0.7006728682194204  0.2881031811437818  0.7171486992501969  Uiso  ?  Ce
O1  1.0  0.6872542078238597  0.25649912011788795  0.7060271673356722  Uiso  ?  O
O1  1.0  0.7199829555872174  0.25959432908843305  0.7266224898314017  Uiso  ?  O
O1  1.0  0.7021315737511419  0.2909400958452027  0.6773378434671434  Uiso  ?  O
O1  1.0  0.7371510474735132  0.2926506859187231  0.7046109080766617  Uiso  ?  O
O1  1.0  0.7199929041101681  0.25956597955360244  0.6500477213483736  Uiso  ?  O
O1  1.0  0.754396178266713  0.2632326556579299  0.6744318913567726  Uiso  ?  O
Ce1  1.0  0.6811839554911241  0.3193983118835789  0.664980295237229  Uiso  ?  Ce
Ce1  1.0  0.7167470509868931  0.31961827987933783  0.6149124507054231  Uiso  ?  Ce
Ce1  1.0  0.7364438108635247  0.29251980149713525  0.6681649462066213  Uiso  ?  Ce
O1  1.0  0.7146531772733007  0.32204050146529667  0.6547176929532282  Uiso  ?  O
O1  1.0  0.7535813893975877  0.32069410445715635  0.679542396454878  Uiso  ?  O
O1  1.0  0.7354237007405295  0.29200216623581143  0.6274908803611838  Uiso  ?  O
O1  1.0  0.7525130375482064  0.32581895728356186  0.6014456211967925  Uiso  ?  O
Ce1  1.0  0.7201170941969364  0.2595461993189552  0.6170624673244904  Uiso  ?  Ce
Ce1  1.0  0.751221355743339  0.26455659277538685  0.5616145288342891  Uiso  ?  Ce
O1  1.0  0.7537376252705636  0.2633176428864821  0.6019319329610199  Uiso  ?  O
Ce1  1.0  0.7491064543194231  0.32439247766063384  0.5676566334497763  Uiso  ?  Ce
Ce1  1.0  0.651199646206984  0.31273117681618007  0.868865560253816  Uiso  ?  Ce
O1  1.0  0.6701148402295447  0.28743691920220255  0.8778334887569361  Uiso  ?  O
O1  1.0  0.6853813338999836  0.31619221695852723  0.8534052368669695  Uiso  ?  O
Ce1  1.0  0.6539319137649463  0.25294601321278043  0.8663643809375928  Uiso  ?  Ce
Ce1  1.0  0.6871001834532443  0.2556167822223053  0.8144940936126387  Uiso  ?  Ce
Ce1  1.0  0.7074123222517308  0.2887925227577481  0.8655530492158569  Uiso  ?  Ce
O1  1.0  0.6893123594249645  0.25587350043738466  0.8539151061360647  Uiso  ?  O
O1  1.0  0.7248832452087387  0.2572303127103066  0.8764019213307185  Uiso  ?  O
O1  1.0  0.7053674884416521  0.2887781733391297  0.8253001747118972  Uiso  ?  O
O1  1.0  0.7425364519044924  0.29011443638036527  0.8529020439694208  Uiso  ?  O
O1  1.0  0.7232584522701694  0.256875565257497  0.8005338469847232  Uiso  ?  O
O1  1.0  0.7572075967777947  0.2597984969371821  0.8259401038106507  Uiso  ?  O
Ce1  1.0  0.6814651996704384  0.31542944164371334  0.8128188592327562  Uiso  ?  Ce
Ce1  1.0  0.7209943912528933  0.3225395743339332  0.7679388380954381  Uiso  ?  Ce
Ce1  1.0  0.7405923252171056  0.2882643966951496  0.8153915744777337  Uiso  ?  Ce
O1  1.0  0.7200436533871682  0.32135097832693693  0.8015261865173385  Uiso  ?  O
O1  1.0  0.7574659112859763  0.3239486009616392  0.8279324546215762  Uiso  ?  O
O1  1.0  0.7391732815902274  0.28815413746916785  0.7763621787810573  Uiso  ?  O
O1  1.0  0.756342930759992  0.3223605965149556  0.7537031833870246  Uiso  ?  O
Ce1  1.0  0.7204106550402862  0.25834129565774405  0.765903210501311  Uiso  ?  Ce
Ce1  1.0  0.7538702373570855  0.2592449520411051  0.713252958699117  Uiso  ?  Ce
O1  1.0  0.7586596296424118  0.2598792854607675  0.7507350656671723  Uiso  ?  O
Ce1  1.0  0.755244966413975  0.3197561797334087  0.7160641863050066  Uiso  ?  Ce
Ce1  1.0  0.7590215308482215  0.2585302959306243  0.8645267122952264  Uiso  ?  Ce
O1  1.0  0.16433723025927327  0.20541487632920885  0.1610598238184351  Uiso  ?  O
O1  1.0  0.1795541769212142  0.2351699757360167  0.1366121933925155  Uiso  ?  O
Ce1  1.0  0.16201990752410936  0.20595574638437789  0.12666755994239115  Uiso  ?  Ce
O1  1.0  0.17835881294932146  0.1775766907072734  0.13661974059908108  Uiso  ?  O
O1  1.0  0.16564196549861218  0.2039424056906903  0.3122509569067451  Uiso  ?  O
O1  1.0  0.185037736656005  0.2397228158044672  0.2873324049736482  Uiso  ?  O
Ce1  1.0  0.16365285843198085  0.20708604935703578  0.276587013673376  Uiso  ?  Ce
O1  1.0  0.1835586974158387  0.17763377114829598  0.28680972085535533  Uiso  ?  O
O1  1.0  0.16207577773183215  0.20621674384535804  0.23500381034191214  Uiso  ?  O
O1  1.0  0.2001384259963753  0.2063747675498562  0.2605834694516387  Uiso  ?  O
O1  1.0  0.18228211587428858  0.17533399827667728  0.21005330994779917  Uiso  ?  O
O1  1.0  0.2196798876275149  0.1781732393337476  0.235160328948288  Uiso  ?  O
Ce1  1.0  0.1778991144927357  0.23964708733044687  0.17682231959602754  Uiso  ?  Ce
Ce1  1.0  0.19981619538111828  0.20950503410939486  0.22689144275560022  Uiso  ?  Ce
O1  1.0  0.17986588448330446  0.23891687946444196  0.2103707920841567  Uiso  ?  O
O1  1.0  0.21539511208970036  0.2416262785626755  0.2346836074556337  Uiso  ?  O
O1  1.0  0.1958192962915731  0.20887619725092893  0.1880333924153206  Uiso  ?  O
O1  1.0  0.23260194230870523  0.20915030208627158  0.21093842412701974  Uiso  ?  O
O1  1.0  0.21165483992026476  0.2398161363875254  0.16198443213372696  Uiso  ?  O
O1  1.0  0.25038628673548174  0.23983760540731408  0.18457933268069276  Uiso  ?  O
Ce1  1.0  0.17975928514922343  0.1767598923373193  0.17360469952518726  Uiso  ?  Ce
Ce1  1.0  0.2204834961915975  0.17980057026708346  0.12334124245375731  Uiso  ?  Ce
Ce1  1.0  0.23471258383012933  0.20994858197062888  0.17177123426747848  Uiso  ?  Ce
O1  1.0  0.21812277917269568  0.17901401747594892  0.16255863073513002  Uiso  ?  O
O1  1.0  0.2513654940292895  0.17928278466050507  0.18352766275355079  Uiso  ?  O
O1  1.0  0.2325474117079519  0.21089919819389016  0.13760653599419684  Uiso  ?  O
O1  1.0  0.26936333807794666  0.21538608675699772  0.15852453782927606  Uiso  ?  O
O1  1.0  0.28843986554745027  0.18371864832440854  0.13461910068287983  Uiso  ?  O
Ce1  1.0  0.2124560765981615  0.24206532278516776  0.12642134831496285  Uiso  ?  Ce
Ce1  1.0  0.2677419590856144  0.21528210585381474  0.12272700489258356  Uiso  ?  Ce
O1  1.0  0.2813466907010199  0.2427946035290834  0.1324109483661537  Uiso  ?  O
O1  1.0  0.16824151283021346  0.20445013183571048  0.4650128757789116  Uiso  ?  O
O1  1.0  0.1853514898971033  0.23624101381061502  0.4374967621612626  Uiso  ?  O
Ce1  1.0  0.16693607134251884  0.20517798230060968  0.4232734007036296  Uiso  ?  Ce
O1  1.0  0.18984093684570114  0.17213783296584736  0.4377290202347859  Uiso  ?  O
O1  1.0  0.16695077528634894  0.20280218373245568  0.38891510154370296  Uiso  ?  O
O1  1.0  0.20168328212615175  0.20661997963742534  0.4105890527515311  Uiso  ?  O
O1  1.0  0.185754663840517  0.17231245622563834  0.3612559649203342  Uiso  ?  O
O1  1.0  0.2203202630209353  0.17577898728372748  0.38339822036694376  Uiso  ?  O
Ce1  1.0  0.1809200739666935  0.23762965776024977  0.3242868739974996  Uiso  ?  Ce
Ce1  1.0  0.20545183622355281  0.20619209068923888  0.37544682384737266  Uiso  ?  Ce
O1  1.0  0.18029297474402237  0.23496070335879815  0.3628167744259028  Uiso  ?  O
O1  1.0  0.22177476416076106  0.23654739844832354  0.38572031745606794  Uiso  ?  O
O1  1.0  0.20003829406877788  0.20956657661240394  0.3373096707284213  Uiso  ?  O
O1  1.0  0.23697390053451117  0.2089018025315391  0.3618659387292639  Uiso  ?  O
O1  1.0  0.21460476447800256  0.23920549298051605  0.3119863550128488  Uiso  ?  O
O1  1.0  0.25151991830978915  0.24235068409973354  0.3362008554155506  Uiso  ?  O
Ce1  1.0  0.18486689014071517  0.17363101590560368  0.32730655937909064  Uiso  ?  Ce
Ce1  1.0  0.2198541421409931  0.17729698330827204  0.27671173090165235  Uiso  ?  Ce
Ce1  1.0  0.23739471625247252  0.21011417748951974  0.3241359551656837  Uiso  ?  Ce
O1  1.0  0.21807260063182962  0.177155924128808  0.31152339370356774  Uiso  ?  O
O1  1.0  0.2546221089182178  0.1777705116947198  0.33403735961124564  Uiso  ?  O
O1  1.0  0.23509585324623847  0.21006835708568042  0.28741180871723876  Uiso  ?  O
O1  1.0  0.2716041281542591  0.2103069018585339  0.3109513591475866  Uiso  ?  O
O1  1.0  0.25186637682431  0.18151698524486504  0.2600770882225716  Uiso  ?  O
O1  1.0  0.28899765943232225  0.18132193558424614  0.2807149916049521  Uiso  ?  O
Ce1  1.0  0.21935425138639977  0.2400450353996741  0.27478294227881456  Uiso  ?  Ce
Ce1  1.0  0.25297947658915143  0.24436342156054378  0.22673085845523713  Uiso  ?  Ce
Ce1  1.0  0.26909494627838737  0.21070432056241603  0.27265032336028105  Uiso  ?  Ce
O1  1.0  0.2524026216615558  0.2384697684417027  0.2616915416651025  Uiso  ?  O
O1  1.0  0.2873284903075544  0.24439643490745422  0.28557692109493205  Uiso  ?  O
O1  1.0  0.2707346746151573  0.21064289036926492  0.23471916687714517  Uiso  ?  O
O1  1.0  0.30647507410039043  0.21302187198021544  0.2598183553495787  Uiso  ?  O
O1  1.0  0.28613976779349315  0.24393737082820166  0.21054362024351012  Uiso  ?  O
O1  1.0  0.32381526182893466  0.24268116294053896  0.23808198125400648  Uiso  ?  O
Ce1  1.0  0.25267313382475215  0.17847192802441206  0.2243504632555082  Uiso  ?  Ce
Ce1  1.0  0.28855199462094844  0.18284588095926874  0.17113174344109255  Uiso  ?  Ce
Ce1  1.0  0.305935929981297  0.211769259004537  0.22148487706106848  Uiso  ?  Ce
O1  1.0  0.2860814434026457  0.17888456517570153  0.2103236194149131  Uiso  ?  O
O1  1.0  0.32171370669690624  0.18447876124256873  0.22995562774179723  Uiso  ?  O
O1  1.0  0.3070702338792894  0.21412068616502097  0.186002168475748  Uiso  ?  O
O1  1.0  0.33858325394456906  0.21834203480461312  0.20699057936342266  Uiso  ?  O
O1  1.0  0.32341671512262715  0.18696419624787927  0.1597638416908631  Uiso  ?  O
O1  1.0  0.35670273132054  0.1872350345943077  0.1819264758400194  Uiso  ?  O
Ce1  1.0  0.283506724145984  0.24365518408405412  0.1760402250210788  Uiso  ?  Ce
Ce1  1.0  0.31828998981441753  0.24782281195512953  0.12060168333899253  Uiso  ?  Ce
Ce1  1.0  0.34118398234375863  0.21690830256172539  0.17293176175272118  Uiso  ?  Ce
O1  1.0  0.3202970913196223  0.24757513716454357  0.15942480363576797  Uiso  ?  O
O1  1.0  0.35491298966966084  0.24199259180494834  0.18119549299525142  Uiso  ?  O
O1  1.0  0.33891742452553925  0.2165645902281253  0.13402959208950682  Uiso  ?  O
O1  1.0  0.3753875841791996  0.21685659099271715  0.15861335073297061  Uiso  ?  O
O1  1.0  0.38900165458338587  0.2490720176482212  0.13414735784984347  Uiso  ?  O
Ce1  1.0  0.3255027517129568  0.18585132666506887  0.12351954213926636  Uiso  ?  Ce
Ce1  1.0  0.37138836221452354  0.21681462705972374  0.12108159459673058  Uiso  ?  Ce
O1  1.0  0.39352917656779596  0.19041106036343575  0.1321364965831559  Uiso  ?  O
O1  1.0  0.1709748386617014  0.20388783579962677  0.6149247173050956  Uiso  ?  O
O1  1.0  0.18658605312724846  0.23222345462909225  0.5893483729844001  Uiso  ?  O
Ce1  1.0  0.1715186570906161  0.20025913928825934  0.5744399908213192  Uiso  ?  Ce
O1  1.0  0.19157143200856144  0.16962606572199562  0.5872734067922414  Uiso  ?  O
O1  1.0  0.16833886327959463  0.2017707500196559  0.5360094471518309  Uiso  ?  O
O1  1.0  0.20488452774824756  0.20165775120575472  0.5620485797568546  Uiso  ?  O
O1  1.0  0.18742786913512033  0.1709404820641917  0.5139130743125133  Uiso  ?  O
O1  1.0  0.22560703975705404  0.1717479910460392  0.5364023524996823  Uiso  ?  O
Ce1  1.0  0.18609398515719086  0.23644345099940636  0.4771867035244155  Uiso  ?  Ce
Ce1  1.0  0.20850332588642514  0.20528937306203893  0.5286385365520297  Uiso  ?  Ce
O1  1.0  0.1851614827635609  0.23229434460766807  0.5136923327923045  Uiso  ?  O
O1  1.0  0.22000310215825608  0.23891581738770223  0.5376611412180918  Uiso  ?  O
O1  1.0  0.20455333578917367  0.20268444938814847  0.4895200066598554  Uiso  ?  O
O1  1.0  0.240656338939941  0.20399218255574222  0.5140772746247709  Uiso  ?  O
O1  1.0  0.21973079827163222  0.2325013787662046  0.46114188338240125  Uiso  ?  O
O1  1.0  0.25706978890758625  0.2367289319789915  0.48494058714684224  Uiso  ?  O
Ce1  1.0  0.1858616163250387  0.17367723696377765  0.476710721031213  Uiso  ?  Ce
Ce1  1.0  0.21988875696748858  0.17859390648040674  0.42333889987220114  Uiso  ?  Ce
Ce1  1.0  0.23913161457082857  0.20817226101317024  0.4774076703430883  Uiso  ?  Ce
O1  1.0  0.21855767820352892  0.17749391286065988  0.46335841436581865  Uiso  ?  O
O1  1.0  0.2592464997060931  0.1765925687191875  0.4856668049582417  Uiso  ?  O
O1  1.0  0.23957371872172847  0.20512466017755726  0.4334732589358546  Uiso  ?  O
O1  1.0  0.2738062221288409  0.2075258505813038  0.459525972192378  Uiso  ?  O
O1  1.0  0.25622577168691363  0.1788759742269889  0.40947023531197996  Uiso  ?  O
O1  1.0  0.2935670758651444  0.17956865253394239  0.4334821824136835  Uiso  ?  O
Ce1  1.0  0.21888442082272735  0.2374366002392649  0.4258726507073504  Uiso  ?  Ce
Ce1  1.0  0.25209564441581106  0.24031531876934356  0.3736515577857141  Uiso  ?  Ce
Ce1  1.0  0.2750267704707545  0.21058289117568882  0.42111319160840527  Uiso  ?  Ce
O1  1.0  0.25225409206485233  0.2406867476994396  0.4123365574020128  Uiso  ?  O
O1  1.0  0.2877761703076945  0.23639144749766847  0.43436041213420634  Uiso  ?  O
O1  1.0  0.2733252767952943  0.2098532546158637  0.38340527672391184  Uiso  ?  O
O1  1.0  0.30880801824723625  0.2123816975891666  0.4097631566715632  Uiso  ?  O
O1  1.0  0.28815985570980257  0.24202027343258656  0.3624401366346231  Uiso  ?  O
O1  1.0  0.323573984020944  0.24301857931482326  0.3838634674408533  Uiso  ?  O
Ce1  1.0  0.2556434013767113  0.17538879810258484  0.37344887071941657  Uiso  ?  Ce
Ce1  1.0  0.291257691862772  0.18127331169563135  0.32090397428009976  Uiso  ?  Ce
Ce1  1.0  0.3100485172138219  0.2139907255171234  0.3749463348546852  Uiso  ?  Ce
O1  1.0  0.29285810582185356  0.1809079139714453  0.36577646126770147  Uiso  ?  O
O1  1.0  0.3291108254284066  0.18033630471740336  0.3875873990685599  Uiso  ?  O
O1  1.0  0.3061909786960609  0.2128875396913478  0.33549866307033377  Uiso  ?  O
O1  1.0  0.34322683863446385  0.21635840352440155  0.358536075761476  Uiso  ?  O
O1  1.0  0.32596916848900453  0.18256027609063274  0.30644075539248716  Uiso  ?  O
O1  1.0  0.36283227546217933  0.18402384192418597  0.3330398350065898  Uiso  ?  O
Ce1  1.0  0.28810874007514836  0.2436145201886047  0.3224828645878312  Uiso  ?  Ce
Ce1  1.0  0.3231873426068527  0.24693361076433135  0.27393284989602573  Uiso  ?  Ce
Ce1  1.0  0.3447221498308775  0.2123752499413153  0.3218450671606919  Uiso  ?  Ce
O1  1.0  0.3242080639274673  0.24493396291109712  0.31087516513098495  Uiso  ?  O
O1  1.0  0.3575247802339028  0.24431543386036042  0.3348447133260875  Uiso  ?  O
O1  1.0  0.340854797533919  0.2150332519390468  0.2859727144677663  Uiso  ?  O
O1  1.0  0.37929528011925645  0.21576545119660306  0.30965838263488427  Uiso  ?  O
O1  1.0  0.35710997885279816  0.24476489686837444  0.2610574209664967  Uiso  ?  O
O1  1.0  0.3918749057778007  0.2500578418743704  0.28067685170123974  Uiso  ?  O
Ce1  1.0  0.32645784057619415  0.18255170907547552  0.2730266315529614  Uiso  ?  Ce
Ce1  1.0  0.3605683509947412  0.18484436818808608  0.22129821154656587  Uiso  ?  Ce
Ce1  1.0  0.3777576903449885  0.21737392798285624  0.26854694271619267  Uiso  ?  Ce
O1  1.0  0.3601618401601003  0.18518688136058548  0.25910209633299197  Uiso  ?  O
O1  1.0  0.3953048648917187  0.18529793056370158  0.28084807106701243  Uiso  ?  O
O1  1.0  0.376269881301999  0.2133935198017593  0.23528241138046654  Uiso  ?  O
O1  1.0  0.4133506757317917  0.21861841802368007  0.25275110937704914  Uiso  ?  O
O1  1.0  0.3949701264648511  0.1861074743688337  0.20648241162394004  Uiso  ?  O
O1  1.0  0.42935854080448244  0.1904817050152929  0.23164162947348238  Uiso  ?  O
Ce1  1.0  0.35760536130265735  0.24779918023293362  0.22288681622750703  Uiso  ?  Ce
Ce1  1.0  0.3898277405480913  0.25198290915219496  0.17252783928881255  Uiso  ?  Ce
Ce1  1.0  0.41096822727253884  0.2185602092777473  0.2227112885754235  Uiso  ?  Ce
O1  1.0  0.3933255032111497  0.2484567563013547  0.2074268728495064  Uiso  ?  O
O1  1.0  0.4261890344203438  0.2511722271452346  0.23546877501973013  Uiso  ?  O
O1  1.0  0.41281418082050003  0.2224382830383562  0.18428123033804703  Uiso  ?  O
O1  1.0  0.4465451550314051  0.22209517742450194  0.20401276269692276  Uiso  ?  O
O1  1.0  0.42657711666857334  0.2534658070273014  0.15672976747006664  Uiso  ?  O
Ce1  1.0  0.3968375038370283  0.18811566337020913  0.16677158232428738  Uiso  ?  Ce
Ce1  1.0  0.4284415678596903  0.19243966909399812  0.11833859298435073  Uiso  ?  Ce
Ce1  1.0  0.4458773920113944  0.22189247373368512  0.16771275039385217  Uiso  ?  Ce
O1  1.0  0.4284256929654543  0.19066661760177012  0.1569689721837174  Uiso  ?  O
O1  1.0  0.465771401140216  0.19106145154282003  0.18149157209351566  Uiso  ?  O
O1  1.0  0.4461313254553531  0.22407292500797502  0.12609228162000652  Uiso  ?  O
O1  1.0  0.4816297070310361  0.2240856085654798  0.15531920294736984  Uiso  ?  O
O1  1.0  0.4984071064898742  0.1931416841156387  0.13436857294887003  Uiso  ?  O
Ce1  1.0  0.4246868214380086  0.25177920194795145  0.11971717015571762  Uiso  ?  Ce
Ce1  1.0  0.47843461619575045  0.22049920848142163  0.11721044018713407  Uiso  ?  Ce
O1  1.0  0.1778811887136222  0.19920080973354412  0.7634629885964405  Uiso  ?  O
O1  1.0  0.19023003156798543  0.23048042051811551  0.7401835058653108  Uiso  ?  O
Ce1  1.0  0.1721510700084498  0.20025898001188658  0.7279896942807685  Uiso  ?  Ce
O1  1.0  0.19471741142590288  0.16755116335601017  0.7364441934656186  Uiso  ?  O
O1  1.0  0.1716990719864915  0.2018624736238696  0.6899723309615711  Uiso  ?  O
O1  1.0  0.20724909024037874  0.20012303582212332  0.7142960582381457  Uiso  ?  O
O1  1.0  0.18912347493622392  0.16893936853626135  0.6630384244047924  Uiso  ?  O
O1  1.0  0.22678155061264066  0.17305190273372334  0.6864683098911761  Uiso  ?  O
Ce1  1.0  0.1868695499408348  0.22906263445265004  0.6231969590881816  Uiso  ?  Ce
Ce1  1.0  0.2089944204007976  0.20150357856822723  0.6767468716544068  Uiso  ?  Ce
O1  1.0  0.18881279432285697  0.22990200118326024  0.6635628817496837  Uiso  ?  O
O1  1.0  0.22382104236080094  0.23394277423311607  0.6877859916692115  Uiso  ?  O
O1  1.0  0.20769063773145802  0.19994074353521465  0.6385260628017906  Uiso  ?  O
O1  1.0  0.2440928699317065  0.2023583750044898  0.6625834296848087  Uiso  ?  O
O1  1.0  0.22370401551677044  0.2352762740639266  0.6125386023658151  Uiso  ?  O
O1  1.0  0.2598248910679362  0.23758550478304022  0.6366105353059907  Uiso  ?  O
Ce1  1.0  0.19350702576671708  0.16988281221982038  0.6252212429552368  Uiso  ?  Ce
Ce1  1.0  0.22563787557322545  0.17247700681336586  0.5727047994547789  Uiso  ?  Ce
Ce1  1.0  0.24416455994792005  0.20425090170647275  0.6230137693274822  Uiso  ?  Ce
O1  1.0  0.22858647629635492  0.1728150793664971  0.614770258419618  Uiso  ?  O
O1  1.0  0.26169505765180806  0.17584269321893894  0.6361950600955747  Uiso  ?  O
O1  1.0  0.24108305578184178  0.20403395627704696  0.5859138513181342  Uiso  ?  O
O1  1.0  0.2746674203695566  0.2043044088375478  0.6119133873697054  Uiso  ?  O
O1  1.0  0.2630516314282232  0.17495282426555062  0.5604814772943257  Uiso  ?  O
O1  1.0  0.29514148010589697  0.1760864316856884  0.5873874950880547  Uiso  ?  O
Ce1  1.0  0.2215977695794828  0.2359390613985477  0.5737133402432099  Uiso  ?  Ce
Ce1  1.0  0.2575069602285175  0.23648229641981047  0.522227353312323  Uiso  ?  Ce
Ce1  1.0  0.2775808207365488  0.2055250999524192  0.5718712990736963  Uiso  ?  Ce
O1  1.0  0.25682464719857767  0.2365617862841025  0.5615204393653709  Uiso  ?  O
O1  1.0  0.29492505675843583  0.2378033814340756  0.586902947550574  Uiso  ?  O
O1  1.0  0.27931075286812196  0.2069589942742825  0.5366006630839781  Uiso  ?  O
O1  1.0  0.3102858685410985  0.2100080924398758  0.5598950857000224  Uiso  ?  O
O1  1.0  0.2914855358023978  0.237963077588543  0.509898928901794  Uiso  ?  O
O1  1.0  0.3278975905811791  0.2418124831722416  0.5378325651610314  Uiso  ?  O
Ce1  1.0  0.2585003878521108  0.17719874775933622  0.5246289824857795  Uiso  ?  Ce
Ce1  1.0  0.29772569259057274  0.17928239152160305  0.4721806561045312  Uiso  ?  Ce
Ce1  1.0  0.31038741542461806  0.2101784838857827  0.5236870772551395  Uiso  ?  Ce
O1  1.0  0.2971005651648875  0.1777337948210509  0.5071879648216997  Uiso  ?  O
O1  1.0  0.33184933495512536  0.1778402509524538  0.5364116309419162  Uiso  ?  O
O1  1.0  0.310603037855631  0.21305441126428984  0.4856535820961685  Uiso  ?  O
O1  1.0  0.3462742462545551  0.2115188401659204  0.5112564266557176  Uiso  ?  O
O1  1.0  0.32794453389011213  0.17973459972208838  0.45757190481184706  Uiso  ?  O
O1  1.0  0.3647736595668453  0.18387138850497542  0.4856562712956338  Uiso  ?  O
Ce1  1.0  0.29236513374829987  0.2439086339261861  0.47251284377819686  Uiso  ?  Ce
Ce1  1.0  0.3253926456652294  0.24021597516911988  0.422506177100117  Uiso  ?  Ce
Ce1  1.0  0.3452871747284079  0.21050789483807825  0.4734815278035213  Uiso  ?  Ce
O1  1.0  0.3261384795478888  0.2410193757932784  0.4593849775882292  Uiso  ?  O
O1  1.0  0.3598820294771174  0.24342327241899217  0.485254132897418  Uiso  ?  O
O1  1.0  0.34442677357281576  0.2106780660440104  0.43602386941677596  Uiso  ?  O
O1  1.0  0.38010003477673626  0.2139337296424243  0.45644148484275876  Uiso  ?  O
O1  1.0  0.36289878077134213  0.24657284527428003  0.4089313209385759  Uiso  ?  O
O1  1.0  0.3949277179802904  0.24815017179049603  0.43313446593078275  Uiso  ?  O
Ce1  1.0  0.32751092077055965  0.18123608980467318  0.4241916863318639  Uiso  ?  Ce
Ce1  1.0  0.3609329642261414  0.18227811083857534  0.37296445910866105  Uiso  ?  Ce
Ce1  1.0  0.3776309189598744  0.21456389725579247  0.4219742309597166  Uiso  ?  Ce
O1  1.0  0.36476716204989784  0.1840532848616909  0.40466394746247664  Uiso  ?  O
O1  1.0  0.39719363337826474  0.18184984184880243  0.4327055144551437  Uiso  ?  O
O1  1.0  0.37958830774584074  0.21436840577097072  0.3831315017913847  Uiso  ?  O
O1  1.0  0.4148420026734856  0.21488857182964455  0.4087873673856959  Uiso  ?  O
O1  1.0  0.39794108134243333  0.18490744607062545  0.3544084309121231  Uiso  ?  O
O1  1.0  0.4357779281759158  0.18627341338686942  0.38255032049535115  Uiso  ?  O
Ce1  1.0  0.3617890170257678  0.24540416088713732  0.3701196605347474  Uiso  ?  Ce
Ce1  1.0  0.39568695289588324  0.24909652030653373  0.3223043737190145  Uiso  ?  Ce
Ce1  1.0  0.413345466640917  0.21783546115821129  0.37136414629469194  Uiso  ?  Ce
O1  1.0  0.39631432807420264  0.24615416098828283  0.3587808738832724  Uiso  ?  O
O1  1.0  0.4314036846267761  0.24714142113940882  0.38122718800756283  Uiso  ?  O
O1  1.0  0.4128173146566055  0.21747524404261775  0.33518652868180815  Uiso  ?  O
O1  1.0  0.45060017516132833  0.221238213764152  0.3550299532504449  Uiso  ?  O
O1  1.0  0.4290015009276929  0.24652552886355159  0.3090257234738798  Uiso  ?  O
O1  1.0  0.46417320881809215  0.25014940495151894  0.328519024325339  Uiso  ?  O
Ce1  1.0  0.3964507701420953  0.1847818682896163  0.3223635793838927  Uiso  ?  Ce
Ce1  1.0  0.43096539326588773  0.18842426956295794  0.267478695510379  Uiso  ?  Ce
Ce1  1.0  0.4457112727091841  0.22095628871365333  0.3209552562991575  Uiso  ?  Ce
O1  1.0  0.4294763090311091  0.18811754752539817  0.3104638757560411  Uiso  ?  O
O1  1.0  0.46936416995404345  0.19068124286762192  0.33046173536440737  Uiso  ?  O
O1  1.0  0.451611811353414  0.22079743671043903  0.2812929439028276  Uiso  ?  O
O1  1.0  0.4832452272164628  0.22270480014310054  0.3045942064758442  Uiso  ?  O
O1  1.0  0.4671359065797831  0.19394276793070864  0.25821204987119245  Uiso  ?  O
O1  1.0  0.5005817361674257  0.1926185911033875  0.2809454121050002  Uiso  ?  O
Ce1  1.0  0.42946831136986546  0.2503979075953812  0.26863316406023696  Uiso  ?  Ce
Ce1  1.0  0.4623555194290173  0.251568599680425  0.21983481813926758  Uiso  ?  Ce
Ce1  1.0  0.4826899606239542  0.2239142612507484  0.2674256911558253  Uiso  ?  Ce
O1  1.0  0.46156210161423955  0.25115522704294174  0.2583610788882323  Uiso  ?  O
O1  1.0  0.48057629563087206  0.22439616351839642  0.2330802639405943  Uiso  ?  O
O1  1.0  0.5159356135246113  0.21911473037347687  0.2547912311145803  Uiso  ?  O
Ce1  1.0  0.46739198193331455  0.18974026924482834  0.22009359360109976  Uiso  ?  Ce
Ce1  1.0  0.5002051811410434  0.19420503621176619  0.16999249339601036  Uiso  ?  Ce
Ce1  1.0  0.5176992072562339  0.22572567215967052  0.21852173663400998  Uiso  ?  Ce
O1  1.0  0.49809910906851307  0.1927811449842638  0.20476544139849923  Uiso  ?  O
O1  1.0  0.5374676892326224  0.19462203337030762  0.23055100157277694  Uiso  ?  O
O1  1.0  0.5188533993316599  0.2263974995039043  0.17796133709837844  Uiso  ?  O
O1  1.0  0.5524042996359306  0.22978704535004305  0.2057525802668595  Uiso  ?  O
O1  1.0  0.5355271474403683  0.19567072521966217  0.15421961457278904  Uiso  ?  O
O1  1.0  0.5722702557707317  0.19601994956687438  0.17799336503447322  Uiso  ?  O
Ce1  1.0  0.5509568501154745  0.22689564946040436  0.1654323165173215  Uiso  ?  Ce
O1  1.0  0.5527556216110565  0.2281414440234997  0.1300197987664873  Uiso  ?  O
O1  1.0  0.5870616604838907  0.22945054053236955  0.15336794311230306  Uiso  ?  O
O1  1.0  0.5878684373418089  0.17155482896022603  0.15362732786046462  Uiso  ?  O
Ce1  1.0  0.5343524216080613  0.1957703629161623  0.11858291479416451  Uiso  ?  Ce
Ce1  1.0  0.5871265282955437  0.17002465780019219  0.11642059336200655  Uiso  ?  Ce
Ce1  1.0  0.5859479692348255  0.22819623418939822  0.11684738100959267  Uiso  ?  Ce
O1  1.0  0.6017836598611557  0.2015321804460226  0.12692831221521048  Uiso  ?  O
O1  1.0  0.194037410101667  0.22654110119068455  0.8883955773577576  Uiso  ?  O
Ce1  1.0  0.17553210545606315  0.19771840287154116  0.880336818603569  Uiso  ?  Ce
O1  1.0  0.17837111281987356  0.19588331645587698  0.8386935076956192  Uiso  ?  O
O1  1.0  0.21403985197800016  0.19932929511141745  0.8639826762224929  Uiso  ?  O
O1  1.0  0.19577770999534164  0.16687972835005693  0.8102830580109627  Uiso  ?  O
O1  1.0  0.2323514408811542  0.1706290131097906  0.8375441364565982  Uiso  ?  O
Ce1  1.0  0.18952221723502252  0.23025446749486114  0.7785588098129197  Uiso  ?  Ce
Ce1  1.0  0.21239991030410812  0.20339746215851073  0.825236301594735  Uiso  ?  Ce
O1  1.0  0.1919419114904181  0.2296538165228887  0.8152948599299147  Uiso  ?  O
O1  1.0  0.2286219630293258  0.23093991319765275  0.8364947540935818  Uiso  ?  O
O1  1.0  0.2124168965567135  0.20097082530150123  0.7888023791741813  Uiso  ?  O
O1  1.0  0.2492427750492066  0.20455621034705318  0.814475581771464  Uiso  ?  O
O1  1.0  0.22668640911175655  0.2343113877577307  0.7616994776262483  Uiso  ?  O
O1  1.0  0.2645997509195822  0.2344302464678805  0.7907822107971245  Uiso  ?  O
Ce1  1.0  0.19502147467996195  0.1704697425234424  0.7774723787776405  Uiso  ?  Ce
Ce1  1.0  0.2260130579007906  0.16952778989832468  0.7243001047311026  Uiso  ?  Ce
Ce1  1.0  0.24503578910833965  0.20393389770413686  0.7753978929442108  Uiso  ?  Ce
O1  1.0  0.22854732442443718  0.17082641991463612  0.7599837032976263  Uiso  ?  O
O1  1.0  0.2660557098074778  0.17353080506888016  0.7890205790956996  Uiso  ?  O
O1  1.0  0.24543350847217157  0.20031700401005012  0.7360408787385309  Uiso  ?  O
O1  1.0  0.280366152229527  0.20388871536701783  0.7615804556279838  Uiso  ?  O
O1  1.0  0.2645636806472221  0.17300641112105525  0.7115925349719592  Uiso  ?  O
O1  1.0  0.29556713028141635  0.17606017911835395  0.7358683872800342  Uiso  ?  O
Ce1  1.0  0.22568495406900244  0.23313035472569396  0.7270470612951742  Uiso  ?  Ce
Ce1  1.0  0.2571863710414902  0.236557541098746  0.676126055999141  Uiso  ?  Ce
Ce1  1.0  0.27970268057026254  0.20541632829367892  0.7232204647403956  Uiso  ?  Ce
O1  1.0  0.26417647680649525  0.2378559850917193  0.7106932707177279  Uiso  ?  O
O1  1.0  0.29602782309256015  0.237049599411324  0.7359789587352056  Uiso  ?  O
O1  1.0  0.28035160059500824  0.20837936913478788  0.6853263742577665  Uiso  ?  O
O1  1.0  0.3160251215075376  0.20674417715459273  0.7106761876203951  Uiso  ?  O
O1  1.0  0.29515415162729325  0.23728078841412725  0.6648592436941394  Uiso  ?  O
O1  1.0  0.32881089532475555  0.23853978085809524  0.6860838915084155  Uiso  ?  O
Ce1  1.0  0.26216578492904496  0.17493619579212008  0.6722714899161842  Uiso  ?  Ce
Ce1  1.0  0.2980503605104776  0.1760457133196747  0.6235661573779534  Uiso  ?  Ce
Ce1  1.0  0.3130936030831123  0.20857822092734  0.6749565157805439  Uiso  ?  Ce
O1  1.0  0.29824486858218696  0.17620272608348952  0.6621767304751606  Uiso  ?  O
O1  1.0  0.33611749365315524  0.1769620987234927  0.68388405808072  Uiso  ?  O
O1  1.0  0.3141086790963881  0.20732323510160608  0.6348428739332694  Uiso  ?  O
O1  1.0  0.34924251729358585  0.20831485977809072  0.6592299944535481  Uiso  ?  O
O1  1.0  0.334630854986567  0.17780945430372816  0.6073826798699469  Uiso  ?  O
O1  1.0  0.36780151303465075  0.18010255196218422  0.6351946025795511  Uiso  ?  O
Ce1  1.0  0.2936488924915606  0.24068212371926825  0.6244908073049947  Uiso  ?  Ce
Ce1  1.0  0.32985995071475444  0.24035580425529213  0.5716071651584825  Uiso  ?  Ce
Ce1  1.0  0.34754004195828025  0.21027598683894871  0.6216718474054336  Uiso  ?  Ce
O1  1.0  0.32784906997107477  0.23862104081679952  0.6147084531687668  Uiso  ?  O
O1  1.0  0.36840745721269624  0.24297017326819162  0.6361969633564933  Uiso  ?  O
O1  1.0  0.3451054364853772  0.21292801186571658  0.583769426789683  Uiso  ?  O
O1  1.0  0.3843300125376154  0.21312849047805169  0.6076861198458793  Uiso  ?  O
O1  1.0  0.3649717914154717  0.2391377157860242  0.5623566644516338  Uiso  ?  O
O1  1.0  0.3978667202206267  0.24279776228491942  0.5845592332947778  Uiso  ?  O
Ce1  1.0  0.3342436126231808  0.18045502729746846  0.5683134304024928  Uiso  ?  Ce
Ce1  1.0  0.3650288300832999  0.18048648905127695  0.5222183111614325  Uiso  ?  Ce
Ce1  1.0  0.38504947973664333  0.21400720984323748  0.5701773473103248  Uiso  ?  Ce
O1  1.0  0.3693593336307369  0.1807092175487988  0.5579328472143663  Uiso  ?  O
O1  1.0  0.4022223441625997  0.18160247803580912  0.5856465652382383  Uiso  ?  O
O1  1.0  0.38346866723800455  0.21357622161758677  0.5340236903943156  Uiso  ?  O
O1  1.0  0.41886878705651975  0.2130226623311242  0.5601345785536269  Uiso  ?  O
O1  1.0  0.40284306680106946  0.18339224058085327  0.5064111437073616  Uiso  ?  O
O1  1.0  0.43456529508350017  0.18572477136458126  0.5304264359560587  Uiso  ?  O
Ce1  1.0  0.3635076140569961  0.24410161598112634  0.5238979092899592  Uiso  ?  Ce
Ce1  1.0  0.39754509942522404  0.2451225173743715  0.471837211791345  Uiso  ?  Ce
Ce1  1.0  0.41549791970986594  0.21380386777591975  0.5240971099627336  Uiso  ?  Ce
O1  1.0  0.39693023356805834  0.2442131966593593  0.5116852541509995  Uiso  ?  O
O1  1.0  0.43439441035777504  0.2455123618217717  0.5334199387655921  Uiso  ?  O
O1  1.0  0.414898651254  0.21664353589443358  0.4827660022551731  Uiso  ?  O
O1  1.0  0.45177473026800036  0.21543023660454386  0.5074232743883131  Uiso  ?  O
O1  1.0  0.43256215741144355  0.24662137000129974  0.4566453778819935  Uiso  ?  O
O1  1.0  0.4690113524516168  0.2503495010590073  0.4831238474341955  Uiso  ?  O
Ce1  1.0  0.39977132739756627  0.18318451102971017  0.47065715867160013  Uiso  ?  Ce
Ce1  1.0  0.43264145902215834  0.1850541618049848  0.42056564703847354  Uiso  ?  Ce
Ce1  1.0  0.45050947049353846  0.2183941757404073  0.47054521052182036  Uiso  ?  Ce
O1  1.0  0.43537752227501114  0.18519725502263268  0.45755311298002765  Uiso  ?  O
O1  1.0  0.47462877027011  0.19024026619799966  0.48179135886123536  Uiso  ?  O
O1  1.0  0.450413019232142  0.2184655572724456  0.4298818374834496  Uiso  ?  O
O1  1.0  0.4874683035938357  0.219576315373359  0.45385010188725694  Uiso  ?  O
O1  1.0  0.4708951468238846  0.18752156320315483  0.40739369323121083  Uiso  ?  O
O1  1.0  0.5055666023368219  0.19261154085190826  0.4320155515171767  Uiso  ?  O
Ce1  1.0  0.4315831361823  0.2489321295491656  0.4197893664485586  Uiso  ?  Ce
Ce1  1.0  0.4657115852241981  0.2506732436029266  0.36773177658027717  Uiso  ?  Ce
Ce1  1.0  0.4883229902316333  0.2220228430761218  0.41671280372529546  Uiso  ?  Ce
O1  1.0  0.47021748171963246  0.2490092895125876  0.40616142722236914  Uiso  ?  O
O1  1.0  0.5029504517400488  0.2528708102341457  0.430663621928514  Uiso  ?  O
O1  1.0  0.48471908237290284  0.2221138602406663  0.38186069636143555  Uiso  ?  O
O1  1.0  0.5205711107768886  0.22356214136583788  0.41032240961915656  Uiso  ?  O
O1  1.0  0.5051622927790865  0.25676422544317423  0.3516236671597019  Uiso  ?  O
Ce1  1.0  0.4677934997045266  0.1906249818016428  0.367738515744726  Uiso  ?  Ce
Ce1  1.0  0.5043380005008052  0.19179175862599054  0.3166979958859491  Uiso  ?  Ce
Ce1  1.0  0.5201278338161139  0.22423569290250103  0.36876272960248296  Uiso  ?  Ce
O1  1.0  0.5009992584975747  0.18992684806277008  0.3548728970684786  Uiso  ?  O
O1  1.0  0.5405727584027613  0.19450188673796318  0.37810942923499297  Uiso  ?  O
O1  1.0  0.5168436416990172  0.2251342005474938  0.32875015088821985  Uiso  ?  O
O1  1.0  0.5533650175191563  0.2218244670786784  0.3527675599120647  Uiso  ?  O
O1  1.0  0.5379953015807496  0.19377401055410812  0.3045968953124204  Uiso  ?  O
O1  1.0  0.5764257804964338  0.19441245935071808  0.32883048874206927  Uiso  ?  O
Ce1  1.0  0.5521951803186691  0.22586236460305287  0.31889907182224325  Uiso  ?  Ce
O1  1.0  0.5566110215071565  0.22777388260071618  0.27995543716961274  Uiso  ?  O
O1  1.0  0.5898786413901765  0.22588273935198677  0.3043276172317863  Uiso  ?  O
Ce1  1.0  0.5362194049301694  0.19581020595171517  0.2667710124443762  Uiso  ?  Ce
Ce1  1.0  0.5736171552149281  0.19582297084047634  0.2167081865381814  Uiso  ?  Ce
Ce1  1.0  0.5886494556023484  0.22717540535374564  0.2680382287289043  Uiso  ?  Ce
O1  1.0  0.5727889533420404  0.19676367114865514  0.25425424699737764  Uiso  ?  O
O1  1.0  0.6098191393268685  0.19830293542270763  0.27673410803269066  Uiso  ?  O
O1  1.0  0.5850752201360534  0.22397635462345283  0.22911649085163205  Uiso  ?  O
O1  1.0  0.626185916564424  0.23362027634183172  0.2551100959554833  Uiso  ?  O
O1  1.0  0.6276425295592243  0.16996994470441992  0.25239400694309305  Uiso  ?  O
O1  1.0  0.6081293192337309  0.197555744488071  0.20340994324980655  Uiso  ?  O
O1  1.0  0.6437847949477665  0.20230573790519576  0.2282050133358183  Uiso  ?  O
Ce1  1.0  0.6223338848759674  0.23152805284100342  0.21312566010493694  Uiso  ?  Ce
O1  1.0  0.6236470479206376  0.2308681127892504  0.17568529378792883  Uiso  ?  O
O1  1.0  0.6595223233782298  0.23100489511261593  0.201557229334258  Uiso  ?  O
Ce1  1.0  0.6265571990711002  0.16900001705641007  0.21371803845915804  Uiso  ?  Ce
O1  1.0  0.6275856332930742  0.17006374604022495  0.17938744406014606  Uiso  ?  O
O1  1.0  0.6635912173704626  0.17349727864818681  0.20385143072005976  Uiso  ?  O
Ce1  1.0  0.607348208972786  0.19961832650554304  0.16560450785638547  Uiso  ?  Ce
Ce1  1.0  0.6611681122729623  0.1711112418854723  0.1653987000867278  Uiso  ?  Ce
Ce1  1.0  0.655957701129695  0.23178658315893022  0.16550563577680924  Uiso  ?  Ce
O1  1.0  0.6420415719762732  0.20372127762022263  0.15349928568089713  Uiso  ?  O
O1  1.0  0.6754213275922398  0.20090680150091325  0.17512552669297826  Uiso  ?  O
O1  1.0  0.6582022952583398  0.23543552317305344  0.1272880340638458  Uiso  ?  O
O1  1.0  0.6963016384425814  0.2368498346042479  0.15202541058110053  Uiso  ?  O
O1  1.0  0.6615446672710343  0.17442349356053385  0.12217431215917123  Uiso  ?  O
O1  1.0  0.6984607600038513  0.1752365848514397  0.1515557419252605  Uiso  ?  O
O1  1.0  0.7109939507205902  0.2035469326413499  0.12446124434398209  Uiso  ?  O
Ce1  1.0  0.2346720995263147  0.17005970349235677  0.8758418363396028  Uiso  ?  Ce
O1  1.0  0.24875543594700142  0.19887089094175792  0.886895545021952  Uiso  ?  O
O1  1.0  0.2677147659633377  0.16997644957274682  0.8620314140188207  Uiso  ?  O
O1  1.0  0.30350483076052265  0.1734624049137894  0.88747749954487  Uiso  ?  O
Ce1  1.0  0.2310945553729392  0.2288705884348878  0.876855730960436  Uiso  ?  Ce
Ce1  1.0  0.26254400220783713  0.23363838134036075  0.8265970244094814  Uiso  ?  Ce
Ce1  1.0  0.28417758856019687  0.2053183198316272  0.8761462737806012  Uiso  ?  Ce
O1  1.0  0.2614396128321732  0.23452468789086392  0.8639526682484758  Uiso  ?  O
O1  1.0  0.29956346301015885  0.2331858160320132  0.8856773317485327  Uiso  ?  O
O1  1.0  0.2848366373895128  0.20326292192724302  0.8389827950380165  Uiso  ?  O
O1  1.0  0.31826366237502574  0.20747353502010607  0.8621562066093421  Uiso  ?  O
O1  1.0  0.29807479126691416  0.23490330958099953  0.8094401922833124  Uiso  ?  O
O1  1.0  0.33584618565146535  0.23436150075089637  0.8383507766028921  Uiso  ?  O
Ce1  1.0  0.2661514169076876  0.17076462302816803  0.8232982211029364  Uiso  ?  Ce
Ce1  1.0  0.3023050665319007  0.1753989761803871  0.77330708986797  Uiso  ?  Ce
Ce1  1.0  0.31563011651241524  0.20516743849944757  0.8245001263657339  Uiso  ?  Ce
O1  1.0  0.3020513628834974  0.1735843552336171  0.8109505213203244  Uiso  ?  O
O1  1.0  0.33654699275474076  0.17168416235989825  0.8353935275016746  Uiso  ?  O
O1  1.0  0.3178539903559928  0.20581354139767483  0.7835654000070187  Uiso  ?  O
O1  1.0  0.3529770878995282  0.20640144781212252  0.8110995617656104  Uiso  ?  O
O1  1.0  0.33429993719194234  0.17437507649682263  0.7614996604038556  Uiso  ?  O
O1  1.0  0.3700388715976373  0.17804453789266192  0.7879956455968196  Uiso  ?  O
Ce1  1.0  0.2956898537148206  0.23512097926274342  0.775100353751714  Uiso  ?  Ce
Ce1  1.0  0.3329414352841242  0.23737344258969492  0.7205561036378115  Uiso  ?  Ce
Ce1  1.0  0.35069816297042666  0.20769663009502032  0.7700234812039656  Uiso  ?  Ce
O1  1.0  0.32876487656209685  0.235392672943327  0.7602977529272529  Uiso  ?  O
O1  1.0  0.36785640210921955  0.23958033043124685  0.7868631488823057  Uiso  ?  O
O1  1.0  0.35042190180027866  0.2077900825347667  0.7353785597366962  Uiso  ?  O
O1  1.0  0.3876665713598352  0.21072877948257493  0.7580650370702915  Uiso  ?  O
O1  1.0  0.3693016237778926  0.24031459499588834  0.7086108329391158  Uiso  ?  O
O1  1.0  0.4010315558129013  0.2421335983461076  0.7312142492541764  Uiso  ?  O
Ce1  1.0  0.33195265189214257  0.17673650030014063  0.7214172710584978  Uiso  ?  Ce
Ce1  1.0  0.37005859451559847  0.18214650282956674  0.6702991127722508  Uiso  ?  Ce
Ce1  1.0  0.38317761007298645  0.21174608948143533  0.7227944531046177  Uiso  ?  Ce
O1  1.0  0.36903538897887445  0.1771026823951164  0.706954110712503  Uiso  ?  O
O1  1.0  0.4071136629317041  0.17922105762436177  0.7344461954256165  Uiso  ?  O
O1  1.0  0.3856097825208547  0.21263571729059164  0.6849278372091838  Uiso  ?  O
O1  1.0  0.4219204523250523  0.2138741974514981  0.7079100928846604  Uiso  ?  O
O1  1.0  0.4015651789191441  0.1803697072687997  0.6588231123716698  Uiso  ?  O
O1  1.0  0.44222057254830954  0.1846982727627687  0.6801975972805481  Uiso  ?  O
Ce1  1.0  0.3637497680602139  0.23936971486708025  0.6707167810699869  Uiso  ?  Ce
Ce1  1.0  0.40246847264210783  0.2432844128566979  0.6198033591840955  Uiso  ?  Ce
Ce1  1.0  0.4209879172972171  0.21354554813666393  0.6721629186203103  Uiso  ?  Ce
O1  1.0  0.40157403997182317  0.240977325831695  0.6587597752247122  Uiso  ?  O
O1  1.0  0.43705876040171776  0.2430758622069444  0.683709133993944  Uiso  ?  O
O1  1.0  0.41976999760359696  0.21527112599427578  0.6310273917509409  Uiso  ?  O
O1  1.0  0.4565046843756846  0.2173273908793776  0.6573837481909053  Uiso  ?  O
O1  1.0  0.43626633024993294  0.24421444211379886  0.6104792449814694  Uiso  ?  O
O1  1.0  0.4733851427198184  0.24759657672387622  0.6341897236691943  Uiso  ?  O
Ce1  1.0  0.40300918010226955  0.1807232421941271  0.6205364969719561  Uiso  ?  Ce
Ce1  1.0  0.43852390862397295  0.1835950452986446  0.5720494128050493  Uiso  ?  Ce
Ce1  1.0  0.45520208423445907  0.21354090913811194  0.6192574602707865  Uiso  ?  Ce
O1  1.0  0.43787955371093007  0.18122334364191295  0.6080243600660363  Uiso  ?  O
O1  1.0  0.47679616408419895  0.18554072986853803  0.6340132456570136  Uiso  ?  O
O1  1.0  0.45705191911969223  0.215591536122677  0.5815077637608635  Uiso  ?  O
O1  1.0  0.48759447891330104  0.21701729790490137  0.6084570449010478  Uiso  ?  O
O1  1.0  0.4726792912891709  0.18639363620374028  0.5580426724456005  Uiso  ?  O
O1  1.0  0.5070502292268696  0.18623052775063614  0.5815652597666846  Uiso  ?  O
Ce1  1.0  0.4320051693231777  0.24709266439641803  0.5697316157739599  Uiso  ?  Ce
Ce1  1.0  0.46905747920423196  0.2503935918315521  0.5212016965370828  Uiso  ?  Ce
Ce1  1.0  0.4894650783726768  0.21668676193848785  0.5670065780066251  Uiso  ?  Ce
O1  1.0  0.4721757248213091  0.24931207234397215  0.5595721156057929  Uiso  ?  O
O1  1.0  0.5041083740473283  0.25167612898077724  0.5829996246488267  Uiso  ?  O
O1  1.0  0.487791471161993  0.2194084794232335  0.530815348893177  Uiso  ?  O
O1  1.0  0.5216080383570331  0.22151742257182178  0.5572888031989297  Uiso  ?  O
O1  1.0  0.5036981503041591  0.24951530030383268  0.5049032725111707  Uiso  ?  O
O1  1.0  0.5394644582472089  0.24818483399539526  0.5316082235816134  Uiso  ?  O
Ce1  1.0  0.4757250773030878  0.18624432567571367  0.5200921222768947  Uiso  ?  Ce
Ce1  1.0  0.5056253481262003  0.18930847564131426  0.46833883138982946  Uiso  ?  Ce
Ce1  1.0  0.5246109823257409  0.22148048450451774  0.5177043433363493  Uiso  ?  Ce
O1  1.0  0.5057663464348646  0.19045772607703182  0.507510374214412  Uiso  ?  O
O1  1.0  0.5421753443747849  0.18884675953444136  0.5290165410936094  Uiso  ?  O
O1  1.0  0.5259187057596986  0.22352213881495375  0.480384573289251  Uiso  ?  O
O1  1.0  0.5586989117090417  0.22437034310083104  0.5052292180322547  Uiso  ?  O
O1  1.0  0.5384835215320134  0.19060447860495258  0.45595562140599927  Uiso  ?  O
O1  1.0  0.578442224226957  0.19271757044747137  0.4811266747820221  Uiso  ?  O
Ce1  1.0  0.504267534475291  0.2527574206965001  0.47040117417025035  Uiso  ?  Ce
Ce1  1.0  0.5538122240865009  0.22376923135035134  0.4680090320005874  Uiso  ?  Ce
O1  1.0  0.5569097139789952  0.22375997686167126  0.43075545022482087  Uiso  ?  O
O1  1.0  0.5938255711542527  0.2253846155879844  0.4541046239949162  Uiso  ?  O
Ce1  1.0  0.5398263282289438  0.19427177367151488  0.42046264308853815  Uiso  ?  Ce
Ce1  1.0  0.5751708631870952  0.1948792789458923  0.36868422211206936  Uiso  ?  Ce
Ce1  1.0  0.5923887362199104  0.22565451006935303  0.41721736298847956  Uiso  ?  Ce
O1  1.0  0.5761117376404234  0.1942750751521263  0.4075031817672507  Uiso  ?  O
O1  1.0  0.6123490932764031  0.19896147070766645  0.43126457281873765  Uiso  ?  O
O1  1.0  0.5894042899009028  0.22683944395494662  0.37796136047804535  Uiso  ?  O
O1  1.0  0.6305279812240674  0.23026720076323048  0.4036763334250289  Uiso  ?  O
O1  1.0  0.6114049183778049  0.19467386383592386  0.3533403545346127  Uiso  ?  O
O1  1.0  0.6447144911219977  0.1983419405064823  0.37797992624828264  Uiso  ?  O
Ce1  1.0  0.6240550266353049  0.2278610597468423  0.36583817356797027  Uiso  ?  Ce
O1  1.0  0.627857346674939  0.23169458293400313  0.32963595751995434  Uiso  ?  O
O1  1.0  0.6605211408859846  0.23052653293033912  0.35342518356547237  Uiso  ?  O
O1  1.0  0.6283931157490625  0.16736937943129335  0.3256422470902387  Uiso  ?  O
O1  1.0  0.6647023757761076  0.16851514914269702  0.3535468251337707  Uiso  ?  O
Ce1  1.0  0.6103675685376794  0.19646475923745277  0.3163369841801984  Uiso  ?  Ce
Ce1  1.0  0.6445702856423707  0.19999188675453658  0.2646446063906928  Uiso  ?  Ce
Ce1  1.0  0.6614260001536343  0.16986731664133686  0.3143970463377496  Uiso  ?  Ce
Ce1  1.0  0.6625244300856644  0.22941510656769545  0.3161681746666813  Uiso  ?  Ce
O1  1.0  0.6451323415544974  0.19992687349418295  0.3030318324198868  Uiso  ?  O
O1  1.0  0.6800093130797547  0.19990613824939468  0.3264975986632449  Uiso  ?  O
O1  1.0  0.6616899760655058  0.23204815914733054  0.2777848775861199  Uiso  ?  O
O1  1.0  0.6978899482079128  0.23126652303956516  0.30016160040535417  Uiso  ?  O
O1  1.0  0.6598920308318275  0.1685273314746288  0.27603785930614433  Uiso  ?  O
O1  1.0  0.7003180141629841  0.1712686728623158  0.3027363298046526  Uiso  ?  O
O1  1.0  0.676303916710187  0.2042280481027915  0.2529695092873996  Uiso  ?  O
O1  1.0  0.7131646541049136  0.20494872075175266  0.2779863241667884  Uiso  ?  O
Ce1  1.0  0.6932290898197568  0.23542808947361935  0.2637540717239138  Uiso  ?  Ce
O1  1.0  0.6957799436968201  0.23851267578187493  0.22699240998458134  Uiso  ?  O
O1  1.0  0.7317591144092916  0.23824147267232537  0.2476944328769297  Uiso  ?  O
Ce1  1.0  0.6970712737887675  0.17357082224456852  0.26343267622753846  Uiso  ?  Ce
O1  1.0  0.7011803707064171  0.17325620718841722  0.2261044447784335  Uiso  ?  O
O1  1.0  0.7362122024027243  0.1761977566510347  0.24708752621236488  Uiso  ?  O
Ce1  1.0  0.6798336795849322  0.20465913483294287  0.21385023802750378  Uiso  ?  Ce
Ce1  1.0  0.7141884580053409  0.20579484697755673  0.16295815786872314  Uiso  ?  Ce
Ce1  1.0  0.7350414097320337  0.17425018421680818  0.2124544951807546  Uiso  ?  Ce
Ce1  1.0  0.7280375543153079  0.23495914881378274  0.21396805385168802  Uiso  ?  Ce
O1  1.0  0.7139182831987563  0.20267438555207132  0.20232507262689145  Uiso  ?  O
O1  1.0  0.7491127076037983  0.20652431253227954  0.22286600106937876  Uiso  ?  O
O1  1.0  0.7268783166146541  0.23479128238979743  0.17711187109648155  Uiso  ?  O
O1  1.0  0.7631470266426622  0.24126661923447026  0.19897642609922533  Uiso  ?  O
O1  1.0  0.7324736882998489  0.17667256912593055  0.17619802384018854  Uiso  ?  O
O1  1.0  0.7473606747447814  0.2093523652422018  0.14791382700039132  Uiso  ?  O
Ce1  1.0  0.7635371461908838  0.24001072028013284  0.16317446694527374  Uiso  ?  Ce
Ce1  1.0  0.7665378944372269  0.17435602825479063  0.16297271623996346  Uiso  ?  Ce
Ce1  1.0  0.33552612532600423  0.23509934661892262  0.8738628980581846  Uiso  ?  Ce
O1  1.0  0.35636434491632796  0.20657897299198283  0.8851232919879515  Uiso  ?  O
O1  1.0  0.3702419404871953  0.23784277090105677  0.8573564701988943  Uiso  ?  O
O1  1.0  0.4044703473697912  0.23707592713215878  0.8842799331790767  Uiso  ?  O
Ce1  1.0  0.33954726053295603  0.17290489741289944  0.8747326196308928  Uiso  ?  Ce
Ce1  1.0  0.3738864375254304  0.17643266339023841  0.8230184702581732  Uiso  ?  Ce
Ce1  1.0  0.38827598879583214  0.20970849400466465  0.875043561925182  Uiso  ?  Ce
O1  1.0  0.3749565431102015  0.17904553399500955  0.8589921799922573  Uiso  ?  O
O1  1.0  0.41252808845207156  0.17872994968951111  0.8874105964592213  Uiso  ?  O
O1  1.0  0.3899143186045078  0.21005301953927505  0.8364872852632923  Uiso  ?  O
O1  1.0  0.4265882774397737  0.20737828050826368  0.8569719187028512  Uiso  ?  O
O1  1.0  0.4097235618540685  0.1801331425931946  0.8081961307219601  Uiso  ?  O
O1  1.0  0.441306398824233  0.18253943785083426  0.8304365641577661  Uiso  ?  O
Ce1  1.0  0.36959219115392644  0.24064642525938362  0.8229187086203807  Uiso  ?  Ce
Ce1  1.0  0.403639203507914  0.24064851745227317  0.7678209212530062  Uiso  ?  Ce
Ce1  1.0  0.4253598511565695  0.2143753135124983  0.8206469664272159  Uiso  ?  Ce
O1  1.0  0.40572861904039015  0.2430922663105417  0.8071617098848282  Uiso  ?  O
O1  1.0  0.4397082320334578  0.23935275216063887  0.8350456310900215  Uiso  ?  O
O1  1.0  0.42201603725070175  0.20962661893001397  0.7847543598695935  Uiso  ?  O
O1  1.0  0.4612105636978683  0.2137002676456822  0.8067547356262356  Uiso  ?  O
O1  1.0  0.4384140249703786  0.2433227203548094  0.7571331706726312  Uiso  ?  O
O1  1.0  0.47118285514329916  0.2477729645609892  0.7829161333881948  Uiso  ?  O
Ce1  1.0  0.40682771682702046  0.18050090330090862  0.7740262088427154  Uiso  ?  Ce
Ce1  1.0  0.4384057751601346  0.18316433354337197  0.7171977107156157  Uiso  ?  Ce
Ce1  1.0  0.4589950592691797  0.2120679114843197  0.7715223652823293  Uiso  ?  Ce
O1  1.0  0.4415414805973092  0.18424825885368978  0.7556553935238947  Uiso  ?  O
O1  1.0  0.4770726108740102  0.1813094440816094  0.7833354680464335  Uiso  ?  O
O1  1.0  0.4563804171990309  0.2124494529974655  0.7312794099068997  Uiso  ?  O
O1  1.0  0.49463587019993327  0.21477564508485408  0.7564808408371357  Uiso  ?  O
O1  1.0  0.47637674350508247  0.18403916934423792  0.7071016088688562  Uiso  ?  O
O1  1.0  0.5124835955689354  0.18952672185132372  0.7329709037328398  Uiso  ?  O
Ce1  1.0  0.4409395686186513  0.24271368720023875  0.7213547481209026  Uiso  ?  Ce
Ce1  1.0  0.4737079220345633  0.24787398754632695  0.668156323791416  Uiso  ?  Ce
Ce1  1.0  0.49236369529402274  0.2168538477892499  0.7195660635922538  Uiso  ?  Ce
O1  1.0  0.47199693227648487  0.2474319601091074  0.7074395940974099  Uiso  ?  O
O1  1.0  0.5117229161421263  0.24959367603961405  0.7322139632108113  Uiso  ?  O
O1  1.0  0.49349465887944244  0.21337405919818223  0.6821043664904798  Uiso  ?  O
O1  1.0  0.5278121718310149  0.21764486692209561  0.7058205494293113  Uiso  ?  O
O1  1.0  0.507315937844571  0.24770714694296753  0.6564605791445859  Uiso  ?  O
O1  1.0  0.5444500613476368  0.25041681810899863  0.681292722324352  Uiso  ?  O
Ce1  1.0  0.47400116719471963  0.18473296523601315  0.672081708563313  Uiso  ?  Ce
Ce1  1.0  0.5118048965109121  0.19046003555425547  0.6179242335813705  Uiso  ?  Ce
Ce1  1.0  0.5263063250477775  0.21885078939623745  0.6713991327531907  Uiso  ?  Ce
O1  1.0  0.5122368698708815  0.1875227705944242  0.6564690543989437  Uiso  ?  O
O1  1.0  0.547124488147625  0.18890443273693952  0.6807380472272888  Uiso  ?  O
O1  1.0  0.5269445300699398  0.22073168944860433  0.6331858236345312  Uiso  ?  O
O1  1.0  0.563510776268325  0.21789232388700266  0.6561536523802559  Uiso  ?  O
O1  1.0  0.5425429683381197  0.1886840073547598  0.6073528310409593  Uiso  ?  O
O1  1.0  0.5795691983982619  0.1951123145172942  0.629408132745411  Uiso  ?  O
Ce1  1.0  0.5065586226402297  0.24919288464135023  0.6182004212936497  Uiso  ?  Ce
Ce1  1.0  0.5413521318784552  0.24894976586001805  0.5711131717767592  Uiso  ?  Ce
Ce1  1.0  0.5600283173947331  0.2205845901273112  0.6187916345754642  Uiso  ?  Ce
O1  1.0  0.5414663089055253  0.2511830835211631  0.6059234549530464  Uiso  ?  O
O1  1.0  0.5603309561098199  0.22552434301283134  0.5802605955617142  Uiso  ?  O
O1  1.0  0.5952002012838015  0.22029689902509034  0.6055926107870425  Uiso  ?  O
Ce1  1.0  0.5422427460133419  0.1897500685687044  0.5696479871325297  Uiso  ?  Ce
Ce1  1.0  0.5778065243966214  0.1932154592793955  0.5137648393390628  Uiso  ?  Ce
Ce1  1.0  0.5978249243799816  0.22582858718057947  0.5691627420384432  Uiso  ?  Ce
O1  1.0  0.5805542564356136  0.1920445822216281  0.5566194972178242  Uiso  ?  O
O1  1.0  0.615019749420339  0.19655396845561995  0.5782591504202395  Uiso  ?  O
O1  1.0  0.5949407893580826  0.22531411863370182  0.5291945231083167  Uiso  ?  O
O1  1.0  0.6320283425253933  0.22279902415998443  0.5537983412695326  Uiso  ?  O
O1  1.0  0.6101420116324202  0.19576697109590138  0.5039587374717509  Uiso  ?  O
O1  1.0  0.6488598924205621  0.19671525612066568  0.5273273887412194  Uiso  ?  O
Ce1  1.0  0.630202566166427  0.22545264226933698  0.5174391738381692  Uiso  ?  Ce
O1  1.0  0.6285588496828368  0.2284945684329292  0.47951428257383516  Uiso  ?  O
O1  1.0  0.6664304266537203  0.22985535389565812  0.5030293507289864  Uiso  ?  O
Ce1  1.0  0.6127002981629414  0.1966540562331159  0.46730261378252413  Uiso  ?  Ce
Ce1  1.0  0.6488007581699156  0.19945594715176732  0.41881104789880197  Uiso  ?  Ce
Ce1  1.0  0.6668065472043493  0.16951664965683982  0.46471125224517196  Uiso  ?  Ce
Ce1  1.0  0.6633352171276999  0.2283691073858564  0.4661655774555225  Uiso  ?  Ce
O1  1.0  0.6483773554751833  0.19785469138385464  0.45329792680788794  Uiso  ?  O
O1  1.0  0.6814095904517454  0.19701264961761947  0.4764449358432647  Uiso  ?  O
O1  1.0  0.6641729898388632  0.23018220922134483  0.42834037200697195  Uiso  ?  O
O1  1.0  0.6999439264554267  0.22908011480581505  0.4480959138263891  Uiso  ?  O
O1  1.0  0.6657308932792131  0.16830173367050516  0.4264120833547813  Uiso  ?  O
O1  1.0  0.7032586993714621  0.17292726131223682  0.45136207015035607  Uiso  ?  O
O1  1.0  0.6833076400916038  0.19978123840834963  0.40013849458826  Uiso  ?  O
O1  1.0  0.7194124471019686  0.20336911100362495  0.42533770315951436  Uiso  ?  O
Ce1  1.0  0.6982930335668545  0.23338717634482836  0.41538575267560046  Uiso  ?  Ce
O1  1.0  0.6984372456015716  0.23222377341165715  0.37254181727529206  Uiso  ?  O
O1  1.0  0.7330167642619956  0.23298405798953756  0.4036007047708578  Uiso  ?  O
Ce1  1.0  0.6992948886256588  0.16819681015384322  0.4142524692474008  Uiso  ?  Ce
O1  1.0  0.6987258755870274  0.17318579355720176  0.3761005180896411  Uiso  ?  O
O1  1.0  0.7348817853451922  0.17257383447641614  0.3998114928744936  Uiso  ?  O
Ce1  1.0  0.6820704837760726  0.20204588901977347  0.36278818369977267  Uiso  ?  Ce
Ce1  1.0  0.7165784320172989  0.20163856911095723  0.31604898546294685  Uiso  ?  Ce
Ce1  1.0  0.738243904504825  0.1749712956121225  0.3657659657294989  Uiso  ?  Ce
Ce1  1.0  0.7348603138352763  0.23308613778044054  0.3651342121046894  Uiso  ?  Ce
O1  1.0  0.7169047630072342  0.2043236974914099  0.3528258671247013  Uiso  ?  O
O1  1.0  0.7550080915645344  0.2043368232212276  0.3755062234845202  Uiso  ?  O
O1  1.0  0.7321918669995832  0.2303864705349389  0.3254012035636471  Uiso  ?  O
O1  1.0  0.7375405261743017  0.17244052822453684  0.32437536002747275  Uiso  ?  O
O1  1.0  0.7505842159326223  0.20414316587785153  0.29796686532186994  Uiso  ?  O
Ce1  1.0  0.765220357615531  0.23822493424610267  0.31154652640351277  Uiso  ?  Ce
O1  1.0  0.7692908289293606  0.23691461001652506  0.27570940868715826  Uiso  ?  O
Ce1  1.0  0.7485951689035086  0.2045260049905321  0.26416516642595506  Uiso  ?  Ce
Ce1  1.0  0.4438953731758306  0.18381271850292266  0.868085173267263  Uiso  ?  Ce
O1  1.0  0.4607079378700907  0.21396653513107444  0.8832470826394498  Uiso  ?  O
O1  1.0  0.4814454500048182  0.18044122197532433  0.859699623083315  Uiso  ?  O
O1  1.0  0.5130089409564459  0.18403796595989141  0.8815124256765703  Uiso  ?  O
Ce1  1.0  0.4437797391198443  0.24228466508407068  0.8729393123576495  Uiso  ?  Ce
Ce1  1.0  0.47503509581275255  0.24476527880289956  0.8229715679435649  Uiso  ?  Ce
Ce1  1.0  0.49624518798119205  0.2156954438818405  0.8677891996842421  Uiso  ?  Ce
O1  1.0  0.47623000915885005  0.24294781399027177  0.858479485774992  Uiso  ?  O
O1  1.0  0.5137300280471411  0.2477609583546356  0.879890088882814  Uiso  ?  O
O1  1.0  0.494833034728216  0.2122083700860582  0.8330512911909661  Uiso  ?  O
O1  1.0  0.5314173057996658  0.21702207087677422  0.8576669109796377  Uiso  ?  O
O1  1.0  0.5114157550100689  0.249672789450672  0.8071884806988041  Uiso  ?  O
O1  1.0  0.5473336049079516  0.25001838394243264  0.8319995887049928  Uiso  ?  O
Ce1  1.0  0.4799269007382442  0.18091648833247032  0.8185577457522873  Uiso  ?  Ce
Ce1  1.0  0.5141832199383207  0.1854550520495949  0.7682616767803199  Uiso  ?  Ce
Ce1  1.0  0.5311275389055342  0.21520708164742416  0.819139923656706  Uiso  ?  Ce
O1  1.0  0.5100863508921827  0.18396434259091093  0.807827193480724  Uiso  ?  O
O1  1.0  0.5489564982202119  0.19001215383943934  0.8319943914458544  Uiso  ?  O
O1  1.0  0.5302251870620872  0.21753842210335525  0.7821738185028106  Uiso  ?  O
O1  1.0  0.5653305824203984  0.22052558440503975  0.8059143909971663  Uiso  ?  O
O1  1.0  0.5483629856175268  0.18544048469809013  0.7546241927766763  Uiso  ?  O
O1  1.0  0.5844703709589198  0.18968467058635569  0.7781469249688115  Uiso  ?  O
Ce1  1.0  0.5088885195687806  0.24563952909307815  0.7695008751121872  Uiso  ?  Ce
Ce1  1.0  0.5462479530262897  0.25108277974172183  0.7164958462158261  Uiso  ?  Ce
Ce1  1.0  0.5621324136242271  0.21743166283911833  0.7654468644409806  Uiso  ?  Ce
O1  1.0  0.5453327498094283  0.2522380253230992  0.7573716605713326  Uiso  ?  O
O1  1.0  0.5786511589613974  0.2520818336664286  0.7810387226293211  Uiso  ?  O
O1  1.0  0.5659835897922304  0.2162804652234218  0.7299844255757765  Uiso  ?  O
O1  1.0  0.5990920518587446  0.22243486909103033  0.7571267554154804  Uiso  ?  O
O1  1.0  0.5795467133387088  0.2530816482813917  0.7038672931920964  Uiso  ?  O
Ce1  1.0  0.5446109677596783  0.18773772312461726  0.7180038808258371  Uiso  ?  Ce
Ce1  1.0  0.5825009852105325  0.19080672779432048  0.6670705364065351  Uiso  ?  Ce
Ce1  1.0  0.5966358600281306  0.2237403526061826  0.7145926702393944  Uiso  ?  Ce
O1  1.0  0.5824379147246163  0.18994046990588723  0.7059884666080394  Uiso  ?  O
O1  1.0  0.6168438116015994  0.19032878023253094  0.7284694940140859  Uiso  ?  O
O1  1.0  0.5981634522738555  0.22173023530469768  0.6794146474830003  Uiso  ?  O
O1  1.0  0.6340852834632307  0.22007881377393254  0.7042572020797017  Uiso  ?  O
O1  1.0  0.6170052759757881  0.19451187363248107  0.6546455873205921  Uiso  ?  O
O1  1.0  0.6530705032429611  0.19719808404699593  0.677278876199895  Uiso  ?  O
Ce1  1.0  0.5796675520732734  0.2520273422285161  0.6661839167283143  Uiso  ?  Ce
Ce1  1.0  0.6318743686134715  0.2241837680372508  0.6638855514949462  Uiso  ?  Ce
O1  1.0  0.635842233932525  0.22399477037593704  0.6269941943233833  Uiso  ?  O
O1  1.0  0.6674927939120706  0.22629972381315164  0.6565064327322888  Uiso  ?  O
Ce1  1.0  0.61770965535527  0.19615377023475367  0.6160064230622979  Uiso  ?  Ce
Ce1  1.0  0.6481216725794325  0.19630662792062892  0.565504334453263  Uiso  ?  Ce
Ce1  1.0  0.6627762891066068  0.2263586554904986  0.6203691655073137  Uiso  ?  Ce
O1  1.0  0.652682533873274  0.19682344706441085  0.6029147102517314  Uiso  ?  O
O1  1.0  0.6835474359691784  0.19641873755520436  0.6310647973968696  Uiso  ?  O
O1  1.0  0.6658907406498689  0.2308235172650934  0.579737844705679  Uiso  ?  O
O1  1.0  0.7030168336058474  0.22733875540865905  0.6041122814441057  Uiso  ?  O
O1  1.0  0.7038244120623725  0.16602486745783315  0.596978991572881  Uiso  ?  O
O1  1.0  0.6863411875854645  0.1993279966419827  0.5523542190123206  Uiso  ?  O
O1  1.0  0.7230206865602714  0.20172502834127137  0.5752930473985527  Uiso  ?  O
Ce1  1.0  0.7002806100911472  0.22982988048344538  0.565001036460502  Uiso  ?  Ce
O1  1.0  0.7012877788105154  0.23003532492033124  0.5285444527989747  Uiso  ?  O
O1  1.0  0.7394159079916705  0.23012574190594143  0.5546862467384694  Uiso  ?  O
Ce1  1.0  0.7048332262800219  0.17225347408848501  0.5640707105923978  Uiso  ?  Ce
O1  1.0  0.7041397804144862  0.17063915026273224  0.5281896241535422  Uiso  ?  O
O1  1.0  0.7400586802277744  0.170207523664731  0.5483414148940484  Uiso  ?  O
Ce1  1.0  0.6837709484958273  0.19840014500220476  0.513772159300219  Uiso  ?  Ce
Ce1  1.0  0.7191185297329418  0.20166237159598993  0.4650245421074944  Uiso  ?  Ce
Ce1  1.0  0.7394871870343032  0.17013449388051635  0.5123139640771286  Uiso  ?  Ce
Ce1  1.0  0.7355730845176034  0.23387526889186158  0.5128624092148794  Uiso  ?  Ce
O1  1.0  0.7175610957094933  0.19899228555639836  0.49950698705233154  Uiso  ?  O
O1  1.0  0.7574691675716163  0.19870918793814563  0.5264292447185351  Uiso  ?  O
O1  1.0  0.735890802350148  0.2373397069188494  0.47503855057003563  Uiso  ?  O
O1  1.0  0.7378793364222923  0.16987640055559464  0.4750884424902618  Uiso  ?  O
O1  1.0  0.7547716910874384  0.20448727198736655  0.45179163674568457  Uiso  ?  O
Ce1  1.0  0.7559428694465109  0.20355257442912328  0.41235025906352146  Uiso  ?  Ce
Ce1  1.0  0.5450011170649427  0.2475650874844419  0.8698908076675894  Uiso  ?  Ce
O1  1.0  0.5663166133108121  0.2193620534692707  0.8834854993279283  Uiso  ?  O
O1  1.0  0.5818733393590327  0.25211917619608604  0.858389726728572  Uiso  ?  O
O1  1.0  0.6147494010608355  0.2509952893898624  0.8825029904950021  Uiso  ?  O
Ce1  1.0  0.5494476786688657  0.1891313191213751  0.8659081204100996  Uiso  ?  Ce
Ce1  1.0  0.584904411077015  0.18694214791749822  0.8188085650887627  Uiso  ?  Ce
Ce1  1.0  0.6027383902371898  0.21890994047265055  0.8672242247510535  Uiso  ?  Ce
O1  1.0  0.5851152126557793  0.1892101322942175  0.8537430508522326  Uiso  ?  O
O1  1.0  0.6236666841422372  0.18981240623248452  0.8801070583056623  Uiso  ?  O
O1  1.0  0.6001209214208671  0.2220122094511217  0.825761406291739  Uiso  ?  O
O1  1.0  0.63876598998758  0.22459847566155908  0.8549475302599895  Uiso  ?  O
O1  1.0  0.6230246378142349  0.1908616263255427  0.8046488216192627  Uiso  ?  O
O1  1.0  0.6552974188254695  0.19235366230763468  0.8288008061668932  Uiso  ?  O
Ce1  1.0  0.5824136605676741  0.2514547258433118  0.8173180207059135  Uiso  ?  Ce
Ce1  1.0  0.6376302559850873  0.22320939229264947  0.8171772637299038  Uiso  ?  Ce
O1  1.0  0.6139815052486783  0.2563774357481076  0.8060684557599316  Uiso  ?  O
O1  1.0  0.6357910957908628  0.22305460248489262  0.7807758613448671  Uiso  ?  O
O1  1.0  0.67267972151278  0.22699860110986717  0.8051530865843537  Uiso  ?  O
Ce1  1.0  0.6192203529800665  0.19151143874183407  0.766488760377052  Uiso  ?  Ce
Ce1  1.0  0.6551480395995407  0.19535645648691702  0.7162994398452222  Uiso  ?  Ce
Ce1  1.0  0.6702745272495741  0.22548643163201634  0.764679572536692  Uiso  ?  Ce
O1  1.0  0.6540249840849955  0.1921334592325196  0.7506712056216318  Uiso  ?  O
O1  1.0  0.6901852402712751  0.19487962727144525  0.777832931964923  Uiso  ?  O
O1  1.0  0.6720880442788784  0.22433479405667858  0.7281504699150507  Uiso  ?  O
O1  1.0  0.7051914526215396  0.2291254715752578  0.7549087208871001  Uiso  ?  O
O1  1.0  0.6888255005505374  0.1970639656996884  0.7032191239848801  Uiso  ?  O
O1  1.0  0.7260784874722818  0.19748278461870364  0.7281045173242905  Uiso  ?  O
Ce1  1.0  0.7023872377486924  0.22545637294435272  0.7126477098733413  Uiso  ?  Ce
O1  1.0  0.702435461703288  0.23040141499705516  0.6798917778966156  Uiso  ?  O
O1  1.0  0.7401833195071769  0.22912098958286786  0.7026740976415853  Uiso  ?  O
O1  1.0  0.7452589546521368  0.16989998422013725  0.6974572197153559  Uiso  ?  O
Ce1  1.0  0.6869347576049479  0.20012212495754994  0.663849868492695  Uiso  ?  Ce
Ce1  1.0  0.7220996627182619  0.19629958273214107  0.6147423540316043  Uiso  ?  Ce
Ce1  1.0  0.7431038203506235  0.17136114290405643  0.6628997184704288  Uiso  ?  Ce
Ce1  1.0  0.7369803679699369  0.2311926036795246  0.6652159957470881  Uiso  ?  Ce
O1  1.0  0.7237694090871054  0.19880755228909758  0.6514695665768439  Uiso  ?  O
O1  1.0  0.7597684129093836  0.2013353237657649  0.675360634120942  Uiso  ?  O
O1  1.0  0.7379561231369869  0.2322526136688511  0.6262033707440468  Uiso  ?  O
O1  1.0  0.7422538152709748  0.16985617462904504  0.6239765502352482  Uiso  ?  O
O1  1.0  0.7558989326727501  0.20102209378758457  0.6015184112710579  Uiso  ?  O
Ce1  1.0  0.7554371751224512  0.2040539809820057  0.5612262256426876  Uiso  ?  Ce
Ce1  1.0  0.6550588614101054  0.19008901505912895  0.8657226908861443  Uiso  ?  Ce
O1  1.0  0.6737595032789997  0.22621918775424435  0.8801290499030422  Uiso  ?  O
O1  1.0  0.6910619855995314  0.19299457694009187  0.8518949819670817  Uiso  ?  O
O1  1.0  0.7284659400675981  0.19752389178094376  0.879913808546344  Uiso  ?  O
Ce1  1.0  0.7051800534442758  0.2266123730114084  0.867419677715862  Uiso  ?  Ce
O1  1.0  0.7084229758466618  0.22747498397207347  0.8299025864712778  Uiso  ?  O
O1  1.0  0.7424676530958046  0.22663124190227915  0.8527835018787225  Uiso  ?  O
Ce1  1.0  0.6893600526804982  0.1959977358454899  0.8147717114458966  Uiso  ?  Ce
Ce1  1.0  0.7268833317273259  0.1963876686860738  0.7681117647046919  Uiso  ?  Ce
Ce1  1.0  0.7418323548845415  0.2279140770672848  0.8145906334024221  Uiso  ?  Ce
O1  1.0  0.7236572411477001  0.19530138719677737  0.7997931898756179  Uiso  ?  O
O1  1.0  0.764471808712273  0.1977218527804145  0.825608128568613  Uiso  ?  O
O1  1.0  0.739212121069596  0.2267956493063397  0.7768120020151309  Uiso  ?  O
O1  1.0  0.7610002682322085  0.1990809552480058  0.7516189229153297  Uiso  ?  O
Ce1  1.0  0.7567703749778545  0.20137670232025504  0.7145886025077639  Uiso  ?  Ce
Ce1  1.0  0.7616190605610633  0.1949880578623668  0.8642843290421195  Uiso  ?  Ce
O1  1.0  0.44841216220576025  0.16149547117320093  0.13192630508841377  Uiso  ?  O
O1  1.0  0.4862924273092901  0.1608415221312553  0.15388986070790042  Uiso  ?  O
Ce1  1.0  0.4848819010172373  0.16277071231887033  0.11630986503824241  Uiso  ?  Ce
O1  1.0  0.48179518914442027  0.16206543625627565  0.22994080005984693  Uiso  ?  O
O1  1.0  0.520867533381476  0.1643818204382182  0.2549159763672725  Uiso  ?  O
Ce1  1.0  0.5211838685088922  0.16461875178257582  0.21542199227604777  Uiso  ?  Ce
O1  1.0  0.51987906383641  0.166181940554657  0.18207250905209685  Uiso  ?  O
O1  1.0  0.5559576880425047  0.16663796828082394  0.20483416027354365  Uiso  ?  O
Ce1  1.0  0.5559548456762344  0.16728413973079612  0.1641734031069674  Uiso  ?  Ce
O1  1.0  0.5511297895414432  0.16430012098748067  0.12940492631652722  Uiso  ?  O
O1  1.0  0.1641083253718758  0.1655756846686267  0.8673247657336468  Uiso  ?  O
O1  1.0  0.19668244812457816  0.16408964227057296  0.8905102933085535  Uiso  ?  O
O1  1.0  0.5262136588675985  0.16306285457701034  0.40487592630313657  Uiso  ?  O
Ce1  1.0  0.5254227038720048  0.16166023890237535  0.36536294377212336  Uiso  ?  Ce
O1  1.0  0.5246409152120184  0.16216091248224368  0.33157428481850476  Uiso  ?  O
O1  1.0  0.5595757331598596  0.1647623213957812  0.3518088429771691  Uiso  ?  O
Ce1  1.0  0.5596749262376063  0.16314995235173957  0.31613450942824317  Uiso  ?  Ce
O1  1.0  0.558504309781741  0.16483589772818263  0.27824585224452825  Uiso  ?  O
O1  1.0  0.5912989220763513  0.16610918562536  0.3038343267239723  Uiso  ?  O
Ce1  1.0  0.5916929241867054  0.1668232019145375  0.2681060057475248  Uiso  ?  Ce
O1  1.0  0.5920956083400413  0.1699427869633485  0.2287291915255052  Uiso  ?  O
O1  1.0  0.5273206231856239  0.1633563684550599  0.47888209573680646  Uiso  ?  O
O1  1.0  0.5596680757494757  0.16107424379713092  0.5016699492972695  Uiso  ?  O
Ce1  1.0  0.5615142228119242  0.1620376932669438  0.46660041100233707  Uiso  ?  Ce
O1  1.0  0.5595842202328228  0.1631648835325846  0.4266651880033302  Uiso  ?  O
O1  1.0  0.5940021959840545  0.16301906710255942  0.4531460697532676  Uiso  ?  O
Ce1  1.0  0.5929696070286776  0.1631492035521942  0.41788415320165234  Uiso  ?  Ce
O1  1.0  0.5931584490573029  0.16194282902459872  0.37697855708572703  Uiso  ?  O
O1  1.0  0.6319832009891769  0.16798083453576673  0.40315611591647604  Uiso  ?  O
Ce1  1.0  0.6306948813175492  0.16617138816424876  0.36356691223378984  Uiso  ?  Ce
Ce1  1.0  0.5657123477123481  0.16178067286639813  0.6190034134330643  Uiso  ?  Ce
O1  1.0  0.56499733296322  0.16243816809200698  0.5801179678703268  Uiso  ?  O
O1  1.0  0.6023459805068603  0.16121516471934935  0.6069432923836158  Uiso  ?  O
Ce1  1.0  0.5985118853778644  0.16465634134334386  0.5666846273330992  Uiso  ?  Ce
O1  1.0  0.5964628914634829  0.16263279046932258  0.5300256805704802  Uiso  ?  O
O1  1.0  0.6353911803573075  0.16774096026642396  0.5498999490358016  Uiso  ?  O
Ce1  1.0  0.6344545484810935  0.1691486538397481  0.5143217059619427  Uiso  ?  Ce
O1  1.0  0.6327512927057847  0.1661868979850678  0.4774988592136857  Uiso  ?  O
O1  1.0  0.6651979314096581  0.16731820398629083  0.5016543258236249  Uiso  ?  O
Ce1  1.0  0.6017671592906639  0.1619741219497945  0.7164131252652484  Uiso  ?  Ce
O1  1.0  0.6017096869653084  0.16068140898065492  0.6803801016478287  Uiso  ?  O
O1  1.0  0.6354626269428203  0.163580204998959  0.7034151498957004  Uiso  ?  O
Ce1  1.0  0.6378229082012434  0.161621973975696  0.6658999618235215  Uiso  ?  Ce
O1  1.0  0.6310911423876456  0.16244692373051128  0.6273292148928633  Uiso  ?  O
O1  1.0  0.6707950402409562  0.16599130677848364  0.6542291753618953  Uiso  ?  O
Ce1  1.0  0.6673317744589747  0.16714641273760364  0.6162749011952502  Uiso  ?  Ce
O1  1.0  0.6678178390305068  0.1676348125772566  0.5789839744836532  Uiso  ?  O
O1  1.0  0.6416325423872273  0.1604926242821429  0.8550330514070145  Uiso  ?  O
Ce1  1.0  0.6379086022686616  0.16132769751635256  0.8136685077658392  Uiso  ?  Ce
O1  1.0  0.672534855219702  0.1632234018153321  0.8028365494225065  Uiso  ?  O
Ce1  1.0  0.6721339382389023  0.16549827497276481  0.7644652487904099  Uiso  ?  Ce
O1  1.0  0.6755557638513761  0.1656752089590455  0.7279998192237658  Uiso  ?  O
O1  1.0  0.7087373985048995  0.16608606034869677  0.7522779888100405  Uiso  ?  O
Ce1  1.0  0.7090273433993186  0.16559845139896714  0.7135613587648617  Uiso  ?  Ce
O1  1.0  0.7082160545599977  0.16675525010841996  0.6752660703687351  Uiso  ?  O
O1  1.0  0.6766388868299722  0.16252272018780411  0.8788587198834205  Uiso  ?  O
Ce1  1.0  0.7090178670237567  0.1636884951405467  0.8660273915014782  Uiso  ?  Ce
O1  1.0  0.7113138317963865  0.16602367458074577  0.8283920389730869  Uiso  ?  O
O1  1.0  0.7454440935597672  0.1641975554202417  0.8483260480899756  Uiso  ?  O
Ce1  1.0  0.7456866811677114  0.17020929219182515  0.8141762101229572  Uiso  ?  Ce
O1  1.0  0.7416494549434821  0.1678375218005478  0.7761736834628699  Uiso  ?  O
