
#======================================================================
# CRYSTAL DATA
#----------------------------------------------------------------------
data_VESTA_phase_1

_chemical_name_common                  'XYZ file after rotation'
_cell_length_a                         59.995571
_cell_length_b                         59.995571
_cell_length_c                         59.995571
_cell_angle_alpha                      90.000000
_cell_angle_beta                       90.000000
_cell_angle_gamma                      90.000000
_cell_volume                           1.000000
_space_group_name_H-M_alt              'P 1'
_space_group_IT_number                 1

loop_
_space_group_symop_operation_xyz
   'x, y, z'

loop_
   _atom_site_label
   _atom_site_occupancy
   _atom_site_fract_x
   _atom_site_fract_y
   _atom_site_fract_z
   _atom_site_adp_type
   _atom_site_U_iso_or_equiv
   _atom_site_type_symbol
   Pt1        1.0     0.360647     0.459663     0.538112    Uiso  ? Pt
   Pt2        1.0     0.337572     0.502000     0.540865    Uiso  ? Pt
   Pt3        1.0     0.312383     0.542892     0.540380    Uiso  ? Pt
   Pt4        1.0     0.385671     0.448308     0.577663    Uiso  ? Pt
   Pt5        1.0     0.430024     0.446511     0.578464    Uiso  ? Pt
   Pt6        1.0     0.450612     0.460260     0.543673    Uiso  ? Pt
   Pt7        1.0     0.407519     0.460052     0.541527    Uiso  ? Pt
   Pt8        1.0     0.383396     0.499231     0.537447    Uiso  ? Pt
   Pt9        1.0     0.405468     0.485846     0.579060    Uiso  ? Pt
   Pt10       1.0     0.429842     0.498588     0.541034    Uiso  ? Pt
   Pt11       1.0     0.358385     0.485440     0.578467    Uiso  ? Pt
   Pt12       1.0     0.335336     0.527607     0.576837    Uiso  ? Pt
   Pt13       1.0     0.383370     0.524254     0.580580    Uiso  ? Pt
   Pt14       1.0     0.408890     0.540746     0.540320    Uiso  ? Pt
   Pt15       1.0     0.362763     0.539177     0.540050    Uiso  ? Pt
   Pt16       1.0     0.338007     0.580328     0.536100    Uiso  ? Pt
   Pt17       1.0     0.361841     0.564750     0.579650    Uiso  ? Pt
   Pt18       1.0     0.384443     0.580369     0.540928    Uiso  ? Pt
   Pt19       1.0     0.316813     0.567984     0.573675    Uiso  ? Pt
   Pt20       1.0     0.339111     0.608205     0.577338    Uiso  ? Pt
   Pt21       1.0     0.361375     0.621654     0.539828    Uiso  ? Pt
   Pt22       1.0     0.474158     0.443776     0.582150    Uiso  ? Pt
   Pt23       1.0     0.524763     0.446994     0.573789    Uiso  ? Pt
   Pt24       1.0     0.544873     0.460149     0.536398    Uiso  ? Pt
   Pt25       1.0     0.499918     0.457980     0.539741    Uiso  ? Pt
   Pt26       1.0     0.477428     0.497835     0.539727    Uiso  ? Pt
   Pt27       1.0     0.498844     0.486290     0.575147    Uiso  ? Pt
   Pt28       1.0     0.523671     0.497821     0.539504    Uiso  ? Pt
   Pt29       1.0     0.453316     0.485417     0.580856    Uiso  ? Pt
   Pt30       1.0     0.430919     0.522119     0.577383    Uiso  ? Pt
   Pt31       1.0     0.475386     0.530590     0.576682    Uiso  ? Pt
   Pt32       1.0     0.498956     0.539569     0.541159    Uiso  ? Pt
   Pt33       1.0     0.453622     0.537585     0.538712    Uiso  ? Pt
   Pt34       1.0     0.429939     0.580847     0.538574    Uiso  ? Pt
   Pt35       1.0     0.452176     0.566508     0.576398    Uiso  ? Pt
   Pt36       1.0     0.476608     0.581363     0.539933    Uiso  ? Pt
   Pt37       1.0     0.404578     0.568798     0.575308    Uiso  ? Pt
   Pt38       1.0     0.385123     0.609238     0.579559    Uiso  ? Pt
   Pt39       1.0     0.429640     0.611252     0.579828    Uiso  ? Pt
   Pt40       1.0     0.454166     0.619597     0.538140    Uiso  ? Pt
   Pt41       1.0     0.408049     0.618806     0.538493    Uiso  ? Pt
   Pt42       1.0     0.383895     0.664231     0.539169    Uiso  ? Pt
   Pt43       1.0     0.404557     0.645522     0.578215    Uiso  ? Pt
   Pt44       1.0     0.429058     0.661582     0.541576    Uiso  ? Pt
   Pt45       1.0     0.364453     0.648009     0.577498    Uiso  ? Pt
   Pt46       1.0     0.567654     0.498535     0.536943    Uiso  ? Pt
   Pt47       1.0     0.546251     0.486598     0.580115    Uiso  ? Pt
   Pt48       1.0     0.525314     0.526607     0.577855    Uiso  ? Pt
   Pt49       1.0     0.569925     0.526418     0.577748    Uiso  ? Pt
   Pt50       1.0     0.592011     0.539153     0.542225    Uiso  ? Pt
   Pt51       1.0     0.543254     0.538911     0.541584    Uiso  ? Pt
   Pt52       1.0     0.526514     0.579754     0.538853    Uiso  ? Pt
   Pt53       1.0     0.545442     0.565497     0.576338    Uiso  ? Pt
   Pt54       1.0     0.568923     0.580898     0.541824    Uiso  ? Pt
   Pt55       1.0     0.499009     0.565262     0.577395    Uiso  ? Pt
   Pt56       1.0     0.477194     0.606033     0.575799    Uiso  ? Pt
   Pt57       1.0     0.522440     0.603900     0.577866    Uiso  ? Pt
   Pt58       1.0     0.545724     0.621813     0.542088    Uiso  ? Pt
   Pt59       1.0     0.496935     0.620922     0.540693    Uiso  ? Pt
   Pt60       1.0     0.477036     0.660219     0.536894    Uiso  ? Pt
   Pt61       1.0     0.500686     0.647939     0.577275    Uiso  ? Pt
   Pt62       1.0     0.521533     0.659828     0.537571    Uiso  ? Pt
   Pt63       1.0     0.452700     0.646430     0.575545    Uiso  ? Pt
   Pt64       1.0     0.589477     0.565164     0.578981    Uiso  ? Pt
   Pt65       1.0     0.567734     0.606255     0.576338    Uiso  ? Pt
   Pt66       1.0     0.545472     0.649221     0.577593    Uiso  ? Pt
   Pt67       1.0     0.404550     0.433880     0.615437    Uiso  ? Pt
   Pt68       1.0     0.381502     0.471756     0.615886    Uiso  ? Pt
   Pt69       1.0     0.359690     0.512319     0.615112    Uiso  ? Pt
   Pt70       1.0     0.339218     0.553322     0.616364    Uiso  ? Pt
   Pt71       1.0     0.428208     0.475892     0.614767    Uiso  ? Pt
   Pt72       1.0     0.476620     0.474255     0.615195    Uiso  ? Pt
   Pt73       1.0     0.452771     0.510278     0.617292    Uiso  ? Pt
   Pt74       1.0     0.408209     0.513176     0.616246    Uiso  ? Pt
   Pt75       1.0     0.384669     0.553762     0.613638    Uiso  ? Pt
   Pt76       1.0     0.428589     0.553759     0.614216    Uiso  ? Pt
   Pt77       1.0     0.408281     0.591282     0.615438    Uiso  ? Pt
   Pt78       1.0     0.359880     0.591315     0.615203    Uiso  ? Pt
   Pt79       1.0     0.385168     0.635423     0.616682    Uiso  ? Pt
   Pt80       1.0     0.518512     0.475647     0.616629    Uiso  ? Pt
   Pt81       1.0     0.547757     0.514423     0.616405    Uiso  ? Pt
   Pt82       1.0     0.497522     0.513354     0.616116    Uiso  ? Pt
   Pt83       1.0     0.475559     0.553944     0.614969    Uiso  ? Pt
   Pt84       1.0     0.522326     0.553947     0.617297    Uiso  ? Pt
   Pt85       1.0     0.499360     0.594584     0.616560    Uiso  ? Pt
   Pt86       1.0     0.451389     0.594546     0.618410    Uiso  ? Pt
   Pt87       1.0     0.433794     0.639037     0.616430    Uiso  ? Pt
   Pt88       1.0     0.476281     0.633207     0.612599    Uiso  ? Pt
   Pt89       1.0     0.567383     0.554529     0.616529    Uiso  ? Pt
   Pt90       1.0     0.545386     0.594802     0.619055    Uiso  ? Pt
   Pt91       1.0     0.518763     0.629959     0.614489    Uiso  ? Pt
   Pt92       1.0     0.499596     0.432141     0.615548    Uiso  ? Pt
   Pt93       1.0     0.451929     0.433176     0.615546    Uiso  ? Pt
   Pt94       1.0     0.453647     0.460200     0.651783    Uiso  ? Pt
   Pt95       1.0     0.407746     0.459249     0.652786    Uiso  ? Pt
   Pt96       1.0     0.379940     0.500502     0.652200    Uiso  ? Pt
   Pt97       1.0     0.429660     0.500559     0.651676    Uiso  ? Pt
   Pt98       1.0     0.406588     0.541853     0.654348    Uiso  ? Pt
   Pt99       1.0     0.360667     0.539668     0.654993    Uiso  ? Pt
   Pt100      1.0     0.383313     0.582406     0.649916    Uiso  ? Pt
   Pt101      1.0     0.500626     0.460179     0.653957    Uiso  ? Pt
   Pt102      1.0     0.474883     0.499932     0.654101    Uiso  ? Pt
   Pt103      1.0     0.521501     0.501178     0.654263    Uiso  ? Pt
   Pt104      1.0     0.500809     0.540683     0.655005    Uiso  ? Pt
   Pt105      1.0     0.453769     0.541686     0.652005    Uiso  ? Pt
   Pt106      1.0     0.430284     0.584435     0.654755    Uiso  ? Pt
   Pt107      1.0     0.476499     0.581327     0.653037    Uiso  ? Pt
   Pt108      1.0     0.451601     0.620098     0.655583    Uiso  ? Pt
   Pt109      1.0     0.408388     0.620242     0.654833    Uiso  ? Pt
   Pt110      1.0     0.545038     0.540019     0.655065    Uiso  ? Pt
   Pt111      1.0     0.523544     0.579233     0.652635    Uiso  ? Pt
   Pt112      1.0     0.497884     0.618028     0.652645    Uiso  ? Pt
   Ce1        1.0     0.133166     0.331883     0.453953    Uiso  ? Ce
   Ce2        1.0     0.230052     0.278585     0.452164    Uiso  ? Ce
   Ce3        1.0     0.292369     0.276020     0.452833    Uiso  ? Ce
   Ce4        1.0     0.264045     0.331626     0.455744    Uiso  ? Ce
   Ce5        1.0     0.196964     0.332863     0.454240    Uiso  ? Ce
   Ce6        1.0     0.164556     0.391611     0.453865    Uiso  ? Ce
   Ce7        1.0     0.227692     0.387462     0.455741    Uiso  ? Ce
   Ce8        1.0     0.194228     0.444698     0.453416    Uiso  ? Ce
   Ce9        1.0     0.165361     0.496144     0.455206    Uiso  ? Ce
   Ce10       1.0     0.356775     0.278688     0.455761    Uiso  ? Ce
   Ce11       1.0     0.424388     0.277702     0.451079    Uiso  ? Ce
   Ce12       1.0     0.356339     0.312582     0.505475    Uiso  ? Ce
   Ce13       1.0     0.389367     0.331988     0.456422    Uiso  ? Ce
   Ce14       1.0     0.323801     0.330251     0.451705    Uiso  ? Ce
   Ce15       1.0     0.294789     0.388171     0.451802    Uiso  ? Ce
   Ce16       1.0     0.356895     0.386152     0.454515    Uiso  ? Ce
   Ce17       1.0     0.325785     0.370958     0.507421    Uiso  ? Ce
   Ce18       1.0     0.229882     0.424603     0.503862    Uiso  ? Ce
   Ce19       1.0     0.293745     0.422158     0.502910    Uiso  ? Ce
   Ce20       1.0     0.324648     0.441531     0.452083    Uiso  ? Ce
   Ce21       1.0     0.262007     0.443715     0.454290    Uiso  ? Ce
   Ce22       1.0     0.229907     0.495454     0.452182    Uiso  ? Ce
   Ce23       1.0     0.295103     0.499404     0.452597    Uiso  ? Ce
   Ce24       1.0     0.262540     0.477978     0.505007    Uiso  ? Ce
   Ce25       1.0     0.228752     0.537828     0.505882    Uiso  ? Ce
   Ce26       1.0     0.260466     0.553411     0.451320    Uiso  ? Ce
   Ce27       1.0     0.192294     0.554425     0.451631    Uiso  ? Ce
   Ce28       1.0     0.167638     0.610327     0.450584    Uiso  ? Ce
   Ce29       1.0     0.232498     0.609766     0.456062    Uiso  ? Ce
   Ce30       1.0     0.199309     0.661292     0.449650    Uiso  ? Ce
   Ce31       1.0     0.483683     0.276247     0.454266    Uiso  ? Ce
   Ce32       1.0     0.548408     0.277382     0.454047    Uiso  ? Ce
   Ce33       1.0     0.515930     0.254008     0.504780    Uiso  ? Ce
   Ce34       1.0     0.454856     0.256076     0.505980    Uiso  ? Ce
   Ce35       1.0     0.418100     0.313004     0.507208    Uiso  ? Ce
   Ce36       1.0     0.483647     0.314934     0.504194    Uiso  ? Ce
   Ce37       1.0     0.517434     0.327898     0.452466    Uiso  ? Ce
   Ce38       1.0     0.448960     0.330814     0.452753    Uiso  ? Ce
   Ce39       1.0     0.419489     0.386319     0.453886    Uiso  ? Ce
   Ce40       1.0     0.484828     0.387711     0.451228    Uiso  ? Ce
   Ce41       1.0     0.451035     0.370595     0.504462    Uiso  ? Ce
   Ce42       1.0     0.389873     0.369505     0.508189    Uiso  ? Ce
   Ce43       1.0     0.355469     0.423241     0.506183    Uiso  ? Ce
   Ce44       1.0     0.421856     0.423544     0.505465    Uiso  ? Ce
   Ce45       1.0     0.450772     0.438864     0.453074    Uiso  ? Ce
   Ce46       1.0     0.389553     0.445235     0.451447    Uiso  ? Ce
   Ce47       1.0     0.356906     0.497623     0.453626    Uiso  ? Ce
   Ce48       1.0     0.418182     0.497800     0.453354    Uiso  ? Ce
   Ce49       1.0     0.389629     0.479313     0.505212    Uiso  ? Ce
   Ce50       1.0     0.323491     0.477571     0.510819    Uiso  ? Ce
   Ce51       1.0     0.292824     0.534232     0.504859    Uiso  ? Ce
   Ce52       1.0     0.360364     0.532474     0.501609    Uiso  ? Ce
   Ce53       1.0     0.390915     0.552718     0.452925    Uiso  ? Ce
   Ce54       1.0     0.326225     0.551827     0.450312    Uiso  ? Ce
   Ce55       1.0     0.295684     0.606026     0.452689    Uiso  ? Ce
   Ce56       1.0     0.355763     0.610118     0.447152    Uiso  ? Ce
   Ce57       1.0     0.324534     0.587554     0.503293    Uiso  ? Ce
   Ce58       1.0     0.261411     0.589588     0.503538    Uiso  ? Ce
   Ce59       1.0     0.322197     0.661288     0.453421    Uiso  ? Ce
   Ce60       1.0     0.262439     0.664008     0.450838    Uiso  ? Ce
   Ce61       1.0     0.232425     0.718961     0.453395    Uiso  ? Ce
   Ce62       1.0     0.294892     0.721528     0.453512    Uiso  ? Ce
   Ce63       1.0     0.262315     0.697702     0.505722    Uiso  ? Ce
   Ce64       1.0     0.196566     0.698361     0.504632    Uiso  ? Ce
   Ce65       1.0     0.229033     0.753692     0.508382    Uiso  ? Ce
   Ce66       1.0     0.611757     0.272626     0.453557    Uiso  ? Ce
   Ce67       1.0     0.673312     0.272221     0.451227    Uiso  ? Ce
   Ce68       1.0     0.641537     0.257332     0.503980    Uiso  ? Ce
   Ce69       1.0     0.580903     0.257826     0.506778    Uiso  ? Ce
   Ce70       1.0     0.546860     0.312738     0.507303    Uiso  ? Ce
   Ce71       1.0     0.611528     0.316903     0.505936    Uiso  ? Ce
   Ce72       1.0     0.640797     0.328778     0.452561    Uiso  ? Ce
   Ce73       1.0     0.578469     0.330884     0.454582    Uiso  ? Ce
   Ce74       1.0     0.549905     0.386227     0.453779    Uiso  ? Ce
   Ce75       1.0     0.613378     0.386308     0.452574    Uiso  ? Ce
   Ce76       1.0     0.580037     0.370941     0.507054    Uiso  ? Ce
   Ce77       1.0     0.513579     0.369441     0.506395    Uiso  ? Ce
   Ce78       1.0     0.483900     0.422482     0.506640    Uiso  ? Ce
   Ce79       1.0     0.548902     0.424128     0.503784    Uiso  ? Ce
   Ce80       1.0     0.583084     0.442364     0.454341    Uiso  ? Ce
   Ce81       1.0     0.514481     0.443194     0.451088    Uiso  ? Ce
   Ce82       1.0     0.484771     0.496970     0.453690    Uiso  ? Ce
   Ce83       1.0     0.548579     0.492463     0.453429    Uiso  ? Ce
   Ce84       1.0     0.517114     0.476602     0.504708    Uiso  ? Ce
   Ce85       1.0     0.451798     0.478360     0.502107    Uiso  ? Ce
   Ce86       1.0     0.419595     0.533875     0.506588    Uiso  ? Ce
   Ce87       1.0     0.483673     0.533807     0.505616    Uiso  ? Ce
   Ce88       1.0     0.517345     0.553952     0.455042    Uiso  ? Ce
   Ce89       1.0     0.452377     0.550471     0.452927    Uiso  ? Ce
   Ce90       1.0     0.423416     0.608371     0.453087    Uiso  ? Ce
   Ce91       1.0     0.486332     0.609535     0.452936    Uiso  ? Ce
   Ce92       1.0     0.454330     0.590354     0.502726    Uiso  ? Ce
   Ce93       1.0     0.389649     0.589049     0.506868    Uiso  ? Ce
   Ce94       1.0     0.354872     0.645705     0.504496    Uiso  ? Ce
   Ce95       1.0     0.422057     0.644185     0.508174    Uiso  ? Ce
   Ce96       1.0     0.455213     0.663815     0.455184    Uiso  ? Ce
   Ce97       1.0     0.391083     0.662356     0.456606    Uiso  ? Ce
   Ce98       1.0     0.361685     0.718343     0.452407    Uiso  ? Ce
   Ce99       1.0     0.423025     0.716794     0.453528    Uiso  ? Ce
   Ce100      1.0     0.388162     0.698658     0.503502    Uiso  ? Ce
   Ce101      1.0     0.327262     0.697544     0.504308    Uiso  ? Ce
   Ce102      1.0     0.293587     0.756871     0.509094    Uiso  ? Ce
   Ce103      1.0     0.358079     0.755341     0.506321    Uiso  ? Ce
   Ce104      1.0     0.737783     0.274745     0.455380    Uiso  ? Ce
   Ce105      1.0     0.705213     0.259108     0.506049    Uiso  ? Ce
   Ce106      1.0     0.676002     0.309807     0.504190    Uiso  ? Ce
   Ce107      1.0     0.739636     0.309666     0.506401    Uiso  ? Ce
   Ce108      1.0     0.770005     0.330644     0.454893    Uiso  ? Ce
   Ce109      1.0     0.707264     0.331257     0.451493    Uiso  ? Ce
   Ce110      1.0     0.675123     0.384551     0.452023    Uiso  ? Ce
   Ce111      1.0     0.741671     0.385311     0.450507    Uiso  ? Ce
   Ce112      1.0     0.706572     0.367007     0.509011    Uiso  ? Ce
   Ce113      1.0     0.642291     0.365761     0.504994    Uiso  ? Ce
   Ce114      1.0     0.612372     0.423044     0.506103    Uiso  ? Ce
   Ce115      1.0     0.674801     0.422974     0.505469    Uiso  ? Ce
   Ce116      1.0     0.708153     0.444070     0.453020    Uiso  ? Ce
   Ce117      1.0     0.646170     0.440632     0.450733    Uiso  ? Ce
   Ce118      1.0     0.611040     0.496320     0.453698    Uiso  ? Ce
   Ce119      1.0     0.678734     0.493814     0.451256    Uiso  ? Ce
   Ce120      1.0     0.643848     0.477693     0.505957    Uiso  ? Ce
   Ce121      1.0     0.581514     0.474058     0.504159    Uiso  ? Ce
   Ce122      1.0     0.546768     0.533933     0.507473    Uiso  ? Ce
   Ce123      1.0     0.613302     0.534914     0.507491    Uiso  ? Ce
   Ce124      1.0     0.640480     0.551572     0.451803    Uiso  ? Ce
   Ce125      1.0     0.577192     0.550764     0.456641    Uiso  ? Ce
   Ce126      1.0     0.549960     0.609170     0.453346    Uiso  ? Ce
   Ce127      1.0     0.613892     0.606136     0.452885    Uiso  ? Ce
   Ce128      1.0     0.583912     0.589289     0.502060    Uiso  ? Ce
   Ce129      1.0     0.519588     0.586855     0.505891    Uiso  ? Ce
   Ce130      1.0     0.547469     0.643960     0.506094    Uiso  ? Ce
   Ce131      1.0     0.581649     0.660503     0.453064    Uiso  ? Ce
   Ce132      1.0     0.517006     0.663095     0.454010    Uiso  ? Ce
   Ce133      1.0     0.487044     0.718240     0.454875    Uiso  ? Ce
   Ce134      1.0     0.550997     0.717485     0.452733    Uiso  ? Ce
   Ce135      1.0     0.518326     0.699570     0.504987    Uiso  ? Ce
   Ce136      1.0     0.453096     0.701815     0.508562    Uiso  ? Ce
   Ce137      1.0     0.419678     0.755289     0.503888    Uiso  ? Ce
   Ce138      1.0     0.484463     0.755318     0.504465    Uiso  ? Ce
   Ce139      1.0     0.800723     0.385073     0.452130    Uiso  ? Ce
   Ce140      1.0     0.765756     0.365536     0.504960    Uiso  ? Ce
   Ce141      1.0     0.741146     0.423118     0.505722    Uiso  ? Ce
   Ce142      1.0     0.772843     0.440353     0.455568    Uiso  ? Ce
   Ce143      1.0     0.740586     0.497152     0.456703    Uiso  ? Ce
   Ce144      1.0     0.802601     0.494779     0.455493    Uiso  ? Ce
   Ce145      1.0     0.771182     0.476714     0.504914    Uiso  ? Ce
   Ce146      1.0     0.709890     0.477915     0.505260    Uiso  ? Ce
   Ce147      1.0     0.678390     0.532116     0.505919    Uiso  ? Ce
   Ce148      1.0     0.740101     0.530039     0.507104    Uiso  ? Ce
   Ce149      1.0     0.773512     0.548885     0.453952    Uiso  ? Ce
   Ce150      1.0     0.705015     0.552214     0.454259    Uiso  ? Ce
   Ce151      1.0     0.672869     0.606893     0.453799    Uiso  ? Ce
   Ce152      1.0     0.742599     0.605133     0.453257    Uiso  ? Ce
   Ce153      1.0     0.707219     0.589839     0.508071    Uiso  ? Ce
   Ce154      1.0     0.645025     0.588314     0.504849    Uiso  ? Ce
   Ce155      1.0     0.611502     0.645790     0.505670    Uiso  ? Ce
   Ce156      1.0     0.677382     0.645009     0.504045    Uiso  ? Ce
   Ce157      1.0     0.708825     0.660052     0.453001    Uiso  ? Ce
   Ce158      1.0     0.644047     0.659521     0.454167    Uiso  ? Ce
   Ce159      1.0     0.614365     0.718457     0.452944    Uiso  ? Ce
   Ce160      1.0     0.677416     0.717692     0.455336    Uiso  ? Ce
   Ce161      1.0     0.643209     0.701024     0.504458    Uiso  ? Ce
   Ce162      1.0     0.581524     0.697979     0.506748    Uiso  ? Ce
   Ce163      1.0     0.550896     0.758880     0.506591    Uiso  ? Ce
   Ce164      1.0     0.613590     0.758844     0.506935    Uiso  ? Ce
   Ce165      1.0     0.801709     0.606616     0.452114    Uiso  ? Ce
   Ce166      1.0     0.774483     0.583910     0.504465    Uiso  ? Ce
   Ce167      1.0     0.737001     0.642206     0.503407    Uiso  ? Ce
   Ce168      1.0     0.772546     0.662687     0.453017    Uiso  ? Ce
   Ce169      1.0     0.743103     0.718260     0.454318    Uiso  ? Ce
   Ce170      1.0     0.807102     0.714474     0.456879    Uiso  ? Ce
   Ce171      1.0     0.773978     0.700265     0.507587    Uiso  ? Ce
   Ce172      1.0     0.708835     0.697914     0.504207    Uiso  ? Ce
   Ce173      1.0     0.679029     0.753934     0.502285    Uiso  ? Ce
   Ce174      1.0     0.738968     0.752146     0.505227    Uiso  ? Ce
   Ce175      1.0     0.164739     0.241287     0.403774    Uiso  ? Ce
   Ce176      1.0     0.228259     0.239511     0.403502    Uiso  ? Ce
   Ce177      1.0     0.196045     0.292859     0.401202    Uiso  ? Ce
   Ce178      1.0     0.133769     0.294177     0.400476    Uiso  ? Ce
   Ce179      1.0     0.163942     0.352543     0.402173    Uiso  ? Ce
   Ce180      1.0     0.134497     0.409545     0.401897    Uiso  ? Ce
   Ce181      1.0     0.293915     0.244339     0.401345    Uiso  ? Ce
   Ce182      1.0     0.355927     0.240445     0.401131    Uiso  ? Ce
   Ce183      1.0     0.323385     0.296269     0.401048    Uiso  ? Ce
   Ce184      1.0     0.260902     0.297634     0.401200    Uiso  ? Ce
   Ce185      1.0     0.226913     0.350198     0.402445    Uiso  ? Ce
   Ce186      1.0     0.293057     0.350591     0.399741    Uiso  ? Ce
   Ce187      1.0     0.261767     0.404633     0.400014    Uiso  ? Ce
   Ce188      1.0     0.194538     0.406569     0.397509    Uiso  ? Ce
   Ce189      1.0     0.168484     0.464047     0.400018    Uiso  ? Ce
   Ce190      1.0     0.232217     0.459601     0.401899    Uiso  ? Ce
   Ce191      1.0     0.200057     0.517027     0.402612    Uiso  ? Ce
   Ce192      1.0     0.133840     0.515864     0.398304    Uiso  ? Ce
   Ce193      1.0     0.164574     0.571519     0.399511    Uiso  ? Ce
   Ce194      1.0     0.420365     0.241460     0.403776    Uiso  ? Ce
   Ce195      1.0     0.482719     0.239678     0.399253    Uiso  ? Ce
   Ce196      1.0     0.453318     0.294520     0.404555    Uiso  ? Ce
   Ce197      1.0     0.388307     0.293704     0.400045    Uiso  ? Ce
   Ce198      1.0     0.357791     0.348765     0.402413    Uiso  ? Ce
   Ce199      1.0     0.421471     0.348629     0.399505    Uiso  ? Ce
   Ce200      1.0     0.388820     0.408008     0.402212    Uiso  ? Ce
   Ce201      1.0     0.322169     0.404290     0.402955    Uiso  ? Ce
   Ce202      1.0     0.294631     0.457471     0.400406    Uiso  ? Ce
   Ce203      1.0     0.356392     0.458473     0.400916    Uiso  ? Ce
   Ce204      1.0     0.326992     0.518174     0.396508    Uiso  ? Ce
   Ce205      1.0     0.261243     0.516532     0.399864    Uiso  ? Ce
   Ce206      1.0     0.231310     0.571555     0.400800    Uiso  ? Ce
   Ce207      1.0     0.291797     0.573102     0.401880    Uiso  ? Ce
   Ce208      1.0     0.263194     0.628286     0.398249    Uiso  ? Ce
   Ce209      1.0     0.199846     0.627397     0.400776    Uiso  ? Ce
   Ce210      1.0     0.167921     0.682408     0.402705    Uiso  ? Ce
   Ce211      1.0     0.228250     0.679374     0.402549    Uiso  ? Ce
   Ce212      1.0     0.200725     0.740560     0.398930    Uiso  ? Ce
   Ce213      1.0     0.613234     0.240627     0.400285    Uiso  ? Ce
   Ce214      1.0     0.578315     0.294923     0.401930    Uiso  ? Ce
   Ce215      1.0     0.514943     0.293912     0.398394    Uiso  ? Ce
   Ce216      1.0     0.483214     0.349307     0.399515    Uiso  ? Ce
   Ce217      1.0     0.547492     0.348899     0.398440    Uiso  ? Ce
   Ce218      1.0     0.513996     0.404692     0.401382    Uiso  ? Ce
   Ce219      1.0     0.453654     0.404794     0.401763    Uiso  ? Ce
   Ce220      1.0     0.415941     0.460866     0.402930    Uiso  ? Ce
   Ce221      1.0     0.483295     0.460186     0.404170    Uiso  ? Ce
   Ce222      1.0     0.453475     0.518430     0.399737    Uiso  ? Ce
   Ce223      1.0     0.388210     0.516275     0.397731    Uiso  ? Ce
   Ce224      1.0     0.358311     0.572876     0.400026    Uiso  ? Ce
   Ce225      1.0     0.422280     0.570198     0.400956    Uiso  ? Ce
   Ce226      1.0     0.391316     0.627363     0.403537    Uiso  ? Ce
   Ce227      1.0     0.326668     0.624058     0.397437    Uiso  ? Ce
   Ce228      1.0     0.293192     0.679933     0.401855    Uiso  ? Ce
   Ce229      1.0     0.360696     0.678250     0.402219    Uiso  ? Ce
   Ce230      1.0     0.327187     0.734436     0.399451    Uiso  ? Ce
   Ce231      1.0     0.264112     0.737212     0.398722    Uiso  ? Ce
   Ce232      1.0     0.674794     0.239382     0.397034    Uiso  ? Ce
   Ce233      1.0     0.706162     0.295737     0.399586    Uiso  ? Ce
   Ce234      1.0     0.642430     0.293712     0.402235    Uiso  ? Ce
   Ce235      1.0     0.612651     0.350881     0.400679    Uiso  ? Ce
   Ce236      1.0     0.672779     0.349234     0.401564    Uiso  ? Ce
   Ce237      1.0     0.645345     0.404608     0.400714    Uiso  ? Ce
   Ce238      1.0     0.579632     0.401878     0.402136    Uiso  ? Ce
   Ce239      1.0     0.547196     0.460440     0.404570    Uiso  ? Ce
   Ce240      1.0     0.610015     0.464134     0.402968    Uiso  ? Ce
   Ce241      1.0     0.582942     0.515345     0.401874    Uiso  ? Ce
   Ce242      1.0     0.518136     0.515481     0.400225    Uiso  ? Ce
   Ce243      1.0     0.485939     0.570763     0.403281    Uiso  ? Ce
   Ce244      1.0     0.548649     0.573718     0.402882    Uiso  ? Ce
   Ce245      1.0     0.517691     0.626746     0.399997    Uiso  ? Ce
   Ce246      1.0     0.452388     0.626201     0.401828    Uiso  ? Ce
   Ce247      1.0     0.421277     0.679141     0.403484    Uiso  ? Ce
   Ce248      1.0     0.485378     0.679219     0.400700    Uiso  ? Ce
   Ce249      1.0     0.450687     0.733059     0.399453    Uiso  ? Ce
   Ce250      1.0     0.387792     0.737344     0.401850    Uiso  ? Ce
   Ce251      1.0     0.739886     0.346901     0.400945    Uiso  ? Ce
   Ce252      1.0     0.801246     0.349388     0.400804    Uiso  ? Ce
   Ce253      1.0     0.773831     0.407600     0.400050    Uiso  ? Ce
   Ce254      1.0     0.708354     0.405646     0.401466    Uiso  ? Ce
   Ce255      1.0     0.675373     0.457720     0.399930    Uiso  ? Ce
   Ce256      1.0     0.738882     0.460104     0.403552    Uiso  ? Ce
   Ce257      1.0     0.705099     0.514988     0.401945    Uiso  ? Ce
   Ce258      1.0     0.645922     0.515523     0.402304    Uiso  ? Ce
   Ce259      1.0     0.611236     0.569657     0.401991    Uiso  ? Ce
   Ce260      1.0     0.680340     0.570411     0.397724    Uiso  ? Ce
   Ce261      1.0     0.645073     0.624078     0.398145    Uiso  ? Ce
   Ce262      1.0     0.580215     0.625541     0.398929    Uiso  ? Ce
   Ce263      1.0     0.547873     0.681988     0.401584    Uiso  ? Ce
   Ce264      1.0     0.616040     0.678343     0.404514    Uiso  ? Ce
   Ce265      1.0     0.582111     0.733828     0.401327    Uiso  ? Ce
   Ce266      1.0     0.518714     0.735770     0.403168    Uiso  ? Ce
   Ce267      1.0     0.834561     0.403540     0.400132    Uiso  ? Ce
   Ce268      1.0     0.800955     0.458264     0.401545    Uiso  ? Ce
   Ce269      1.0     0.834639     0.514289     0.401669    Uiso  ? Ce
   Ce270      1.0     0.772681     0.512610     0.401206    Uiso  ? Ce
   Ce271      1.0     0.738680     0.570825     0.400245    Uiso  ? Ce
   Ce272      1.0     0.804809     0.568290     0.398268    Uiso  ? Ce
   Ce273      1.0     0.772354     0.625824     0.400956    Uiso  ? Ce
   Ce274      1.0     0.706627     0.626965     0.400914    Uiso  ? Ce
   Ce275      1.0     0.676856     0.680425     0.401454    Uiso  ? Ce
   Ce276      1.0     0.739317     0.679879     0.402071    Uiso  ? Ce
   Ce277      1.0     0.705920     0.732863     0.401867    Uiso  ? Ce
   Ce278      1.0     0.643445     0.736434     0.403230    Uiso  ? Ce
   Ce279      1.0     0.836740     0.621498     0.401623    Uiso  ? Ce
   Ce280      1.0     0.804979     0.679179     0.401742    Uiso  ? Ce
   Ce281      1.0     0.836506     0.735602     0.397868    Uiso  ? Ce
   Ce282      1.0     0.774484     0.735309     0.401972    Uiso  ? Ce
   Ce283      1.0     0.102558     0.313373     0.351148    Uiso  ? Ce
   Ce284      1.0     0.261724     0.259088     0.350180    Uiso  ? Ce
   Ce285      1.0     0.197428     0.259550     0.347773    Uiso  ? Ce
   Ce286      1.0     0.163827     0.311629     0.348171    Uiso  ? Ce
   Ce287      1.0     0.227941     0.313609     0.348230    Uiso  ? Ce
   Ce288      1.0     0.198167     0.368337     0.350996    Uiso  ? Ce
   Ce289      1.0     0.135021     0.372144     0.349417    Uiso  ? Ce
   Ce290      1.0     0.100000     0.428051     0.350457    Uiso  ? Ce
   Ce291      1.0     0.165921     0.426236     0.349590    Uiso  ? Ce
   Ce292      1.0     0.136330     0.479322     0.346897    Uiso  ? Ce
   Ce293      1.0     0.387969     0.257628     0.347706    Uiso  ? Ce
   Ce294      1.0     0.322591     0.262263     0.351893    Uiso  ? Ce
   Ce295      1.0     0.292043     0.313263     0.348240    Uiso  ? Ce
   Ce296      1.0     0.358602     0.313744     0.349200    Uiso  ? Ce
   Ce297      1.0     0.322908     0.368506     0.346179    Uiso  ? Ce
   Ce298      1.0     0.263820     0.371197     0.346548    Uiso  ? Ce
   Ce299      1.0     0.231616     0.424322     0.350250    Uiso  ? Ce
   Ce300      1.0     0.289519     0.423363     0.345539    Uiso  ? Ce
   Ce301      1.0     0.262753     0.477546     0.349393    Uiso  ? Ce
   Ce302      1.0     0.197437     0.480336     0.348574    Uiso  ? Ce
   Ce303      1.0     0.167433     0.535171     0.350279    Uiso  ? Ce
   Ce304      1.0     0.230340     0.534498     0.349957    Uiso  ? Ce
   Ce305      1.0     0.194030     0.590843     0.348723    Uiso  ? Ce
   Ce306      1.0     0.133292     0.590450     0.346653    Uiso  ? Ce
   Ce307      1.0     0.168759     0.645343     0.345228    Uiso  ? Ce
   Ce308      1.0     0.514638     0.258379     0.349859    Uiso  ? Ce
   Ce309      1.0     0.454260     0.258084     0.350111    Uiso  ? Ce
   Ce310      1.0     0.420970     0.310445     0.351141    Uiso  ? Ce
   Ce311      1.0     0.483943     0.318054     0.350674    Uiso  ? Ce
   Ce312      1.0     0.450905     0.364319     0.348637    Uiso  ? Ce
   Ce313      1.0     0.386790     0.368173     0.349032    Uiso  ? Ce
   Ce314      1.0     0.359899     0.423256     0.350136    Uiso  ? Ce
   Ce315      1.0     0.424009     0.421754     0.350149    Uiso  ? Ce
   Ce316      1.0     0.389968     0.481312     0.349780    Uiso  ? Ce
   Ce317      1.0     0.324591     0.478011     0.350042    Uiso  ? Ce
   Ce318      1.0     0.295090     0.531918     0.351231    Uiso  ? Ce
   Ce319      1.0     0.358826     0.533467     0.349897    Uiso  ? Ce
   Ce320      1.0     0.229148     0.648226     0.348239    Uiso  ? Ce
   Ce321      1.0     0.294986     0.643449     0.351058    Uiso  ? Ce
   Ce322      1.0     0.264199     0.701412     0.349677    Uiso  ? Ce
   Ce323      1.0     0.201930     0.698831     0.351803    Uiso  ? Ce
   Ce324      1.0     0.165510     0.756858     0.348293    Uiso  ? Ce
   Ce325      1.0     0.227764     0.757449     0.349647    Uiso  ? Ce
   Ce326      1.0     0.643236     0.257421     0.347156    Uiso  ? Ce
   Ce327      1.0     0.575103     0.257096     0.347664    Uiso  ? Ce
   Ce328      1.0     0.550527     0.311668     0.348669    Uiso  ? Ce
   Ce329      1.0     0.610988     0.312831     0.350503    Uiso  ? Ce
   Ce330      1.0     0.580219     0.369196     0.348983    Uiso  ? Ce
   Ce331      1.0     0.517910     0.368876     0.351207    Uiso  ? Ce
   Ce332      1.0     0.484017     0.427302     0.349262    Uiso  ? Ce
   Ce333      1.0     0.548208     0.426825     0.348356    Uiso  ? Ce
   Ce334      1.0     0.515493     0.477369     0.348985    Uiso  ? Ce
   Ce335      1.0     0.452654     0.478000     0.348410    Uiso  ? Ce
   Ce336      1.0     0.420517     0.535690     0.350669    Uiso  ? Ce
   Ce337      1.0     0.482729     0.535649     0.350673    Uiso  ? Ce
   Ce338      1.0     0.452700     0.589345     0.351541    Uiso  ? Ce
   Ce339      1.0     0.389751     0.588492     0.348232    Uiso  ? Ce
   Ce340      1.0     0.359551     0.648097     0.345107    Uiso  ? Ce
   Ce341      1.0     0.421267     0.643557     0.347418    Uiso  ? Ce
   Ce342      1.0     0.388926     0.699215     0.349451    Uiso  ? Ce
   Ce343      1.0     0.326649     0.698474     0.349685    Uiso  ? Ce
   Ce344      1.0     0.294348     0.753446     0.351005    Uiso  ? Ce
   Ce345      1.0     0.360558     0.755074     0.350095    Uiso  ? Ce
   Ce346      1.0     0.710996     0.258007     0.344417    Uiso  ? Ce
   Ce347      1.0     0.673941     0.313299     0.348710    Uiso  ? Ce
   Ce348      1.0     0.737138     0.311252     0.349777    Uiso  ? Ce
   Ce349      1.0     0.709901     0.367570     0.347366    Uiso  ? Ce
   Ce350      1.0     0.642685     0.363981     0.349808    Uiso  ? Ce
   Ce351      1.0     0.610171     0.423166     0.347484    Uiso  ? Ce
   Ce352      1.0     0.675198     0.421954     0.347577    Uiso  ? Ce
   Ce353      1.0     0.641992     0.479022     0.347992    Uiso  ? Ce
   Ce354      1.0     0.581742     0.477502     0.352035    Uiso  ? Ce
   Ce355      1.0     0.547800     0.534175     0.345992    Uiso  ? Ce
   Ce356      1.0     0.615212     0.532070     0.347967    Uiso  ? Ce
   Ce357      1.0     0.582036     0.588396     0.348641    Uiso  ? Ce
   Ce358      1.0     0.516608     0.588159     0.349141    Uiso  ? Ce
   Ce359      1.0     0.484465     0.643050     0.346028    Uiso  ? Ce
   Ce360      1.0     0.549064     0.644414     0.348513    Uiso  ? Ce
   Ce361      1.0     0.516173     0.698764     0.347777    Uiso  ? Ce
   Ce362      1.0     0.454801     0.700221     0.348837    Uiso  ? Ce
   Ce363      1.0     0.424357     0.755906     0.349985    Uiso  ? Ce
   Ce364      1.0     0.486573     0.760618     0.350839    Uiso  ? Ce
   Ce365      1.0     0.772905     0.370700     0.348964    Uiso  ? Ce
   Ce366      1.0     0.739796     0.422677     0.346303    Uiso  ? Ce
   Ce367      1.0     0.804838     0.421851     0.350431    Uiso  ? Ce
   Ce368      1.0     0.772008     0.476605     0.348121    Uiso  ? Ce
   Ce369      1.0     0.708337     0.477841     0.349387    Uiso  ? Ce
   Ce370      1.0     0.676783     0.530423     0.349000    Uiso  ? Ce
   Ce371      1.0     0.739598     0.531958     0.349579    Uiso  ? Ce
   Ce372      1.0     0.710305     0.589986     0.348968    Uiso  ? Ce
   Ce373      1.0     0.642804     0.587247     0.348022    Uiso  ? Ce
   Ce374      1.0     0.612494     0.643300     0.346924    Uiso  ? Ce
   Ce375      1.0     0.675165     0.642669     0.348488    Uiso  ? Ce
   Ce376      1.0     0.643766     0.698030     0.347110    Uiso  ? Ce
   Ce377      1.0     0.582551     0.699753     0.349648    Uiso  ? Ce
   Ce378      1.0     0.550484     0.752638     0.351966    Uiso  ? Ce
   Ce379      1.0     0.613082     0.753238     0.351407    Uiso  ? Ce
   Ce380      1.0     0.836612     0.478016     0.347030    Uiso  ? Ce
   Ce381      1.0     0.802034     0.531401     0.350800    Uiso  ? Ce
   Ce382      1.0     0.870991     0.532663     0.350670    Uiso  ? Ce
   Ce383      1.0     0.836011     0.584442     0.346807    Uiso  ? Ce
   Ce384      1.0     0.770810     0.585632     0.352605    Uiso  ? Ce
   Ce385      1.0     0.744234     0.640487     0.347704    Uiso  ? Ce
   Ce386      1.0     0.801643     0.637783     0.351714    Uiso  ? Ce
   Ce387      1.0     0.772318     0.698172     0.346646    Uiso  ? Ce
   Ce388      1.0     0.712202     0.698855     0.348024    Uiso  ? Ce
   Ce389      1.0     0.677523     0.754258     0.351037    Uiso  ? Ce
   Ce390      1.0     0.742509     0.756859     0.346171    Uiso  ? Ce
   Ce391      1.0     0.900000     0.584181     0.347843    Uiso  ? Ce
   Ce392      1.0     0.870364     0.643572     0.348594    Uiso  ? Ce
   Ce393      1.0     0.837395     0.699340     0.349985    Uiso  ? Ce
   Ce394      1.0     0.804835     0.755169     0.349562    Uiso  ? Ce
   Ce395      1.0     0.387125     0.406616     0.555920    Uiso  ? Ce
   Ce396      1.0     0.578863     0.296269     0.559294    Uiso  ? Ce
   Ce397      1.0     0.481060     0.347698     0.556481    Uiso  ? Ce
   Ce398      1.0     0.547512     0.349322     0.559045    Uiso  ? Ce
   Ce399      1.0     0.518219     0.405933     0.556372    Uiso  ? Ce
   Ce400      1.0     0.450645     0.406825     0.555334    Uiso  ? Ce
   Ce401      1.0     0.611973     0.348113     0.557442    Uiso  ? Ce
   Ce402      1.0     0.642480     0.403588     0.557216    Uiso  ? Ce
   Ce403      1.0     0.582351     0.405592     0.556869    Uiso  ? Ce
