
#======================================================================
# CRYSTAL DATA
#----------------------------------------------------------------------
data_VESTA_phase_1

_chemical_name_common                  'XYZ file after rotation'
_cell_length_a                         60.301319
_cell_length_b                         60.301319
_cell_length_c                         60.301319
_cell_angle_alpha                      90.000000
_cell_angle_beta                       90.000000
_cell_angle_gamma                      90.000000
_cell_volume                           1.000000
_space_group_name_H-M_alt              'P 1'
_space_group_IT_number                 1

loop_
_space_group_symop_operation_xyz
   'x, y, z'

loop_
   _atom_site_label
   _atom_site_occupancy
   _atom_site_fract_x
   _atom_site_fract_y
   _atom_site_fract_z
   _atom_site_adp_type
   _atom_site_U_iso_or_equiv
   _atom_site_type_symbol
   Pt1        1.0     0.362527     0.455174     0.544048    Uiso  ? Pt
   Pt2        1.0     0.339569     0.497297     0.546787    Uiso  ? Pt
   Pt3        1.0     0.314508     0.537981     0.546305    Uiso  ? Pt
   Pt4        1.0     0.387424     0.443876     0.583399    Uiso  ? Pt
   Pt5        1.0     0.431552     0.442089     0.584195    Uiso  ? Pt
   Pt6        1.0     0.452036     0.455768     0.549581    Uiso  ? Pt
   Pt7        1.0     0.409161     0.455561     0.547446    Uiso  ? Pt
   Pt8        1.0     0.385160     0.494542     0.543387    Uiso  ? Pt
   Pt9        1.0     0.407121     0.481224     0.584789    Uiso  ? Pt
   Pt10       1.0     0.431371     0.493902     0.546956    Uiso  ? Pt
   Pt11       1.0     0.360276     0.480820     0.584199    Uiso  ? Pt
   Pt12       1.0     0.337345     0.522774     0.582577    Uiso  ? Pt
   Pt13       1.0     0.385135     0.519438     0.586301    Uiso  ? Pt
   Pt14       1.0     0.410526     0.535846     0.546245    Uiso  ? Pt
   Pt15       1.0     0.364633     0.534285     0.545976    Uiso  ? Pt
   Pt16       1.0     0.340002     0.575227     0.542047    Uiso  ? Pt
   Pt17       1.0     0.363715     0.559728     0.585376    Uiso  ? Pt
   Pt18       1.0     0.386202     0.575268     0.546850    Uiso  ? Pt
   Pt19       1.0     0.318916     0.562946     0.579431    Uiso  ? Pt
   Pt20       1.0     0.341101     0.602963     0.583075    Uiso  ? Pt
   Pt21       1.0     0.363251     0.616343     0.545756    Uiso  ? Pt
   Pt22       1.0     0.475463     0.439368     0.587863    Uiso  ? Pt
   Pt23       1.0     0.525811     0.442569     0.579544    Uiso  ? Pt
   Pt24       1.0     0.545819     0.455658     0.542343    Uiso  ? Pt
   Pt25       1.0     0.501092     0.453500     0.545669    Uiso  ? Pt
   Pt26       1.0     0.478716     0.493153     0.545655    Uiso  ? Pt
   Pt27       1.0     0.500023     0.481666     0.580895    Uiso  ? Pt
   Pt28       1.0     0.524724     0.493139     0.545433    Uiso  ? Pt
   Pt29       1.0     0.454726     0.480798     0.586575    Uiso  ? Pt
   Pt30       1.0     0.432443     0.517314     0.583120    Uiso  ? Pt
   Pt31       1.0     0.476685     0.525742     0.582422    Uiso  ? Pt
   Pt32       1.0     0.500135     0.534675     0.547080    Uiso  ? Pt
   Pt33       1.0     0.455031     0.532701     0.544645    Uiso  ? Pt
   Pt34       1.0     0.431468     0.575744     0.544508    Uiso  ? Pt
   Pt35       1.0     0.453592     0.561478     0.582141    Uiso  ? Pt
   Pt36       1.0     0.477900     0.576257     0.545860    Uiso  ? Pt
   Pt37       1.0     0.406236     0.563756     0.581055    Uiso  ? Pt
   Pt38       1.0     0.386879     0.603991     0.585285    Uiso  ? Pt
   Pt39       1.0     0.431171     0.605994     0.585553    Uiso  ? Pt
   Pt40       1.0     0.455572     0.614298     0.544076    Uiso  ? Pt
   Pt41       1.0     0.409689     0.613510     0.544427    Uiso  ? Pt
   Pt42       1.0     0.385657     0.658705     0.545100    Uiso  ? Pt
   Pt43       1.0     0.406214     0.640091     0.583948    Uiso  ? Pt
   Pt44       1.0     0.430591     0.656070     0.547495    Uiso  ? Pt
   Pt45       1.0     0.366314     0.642566     0.583234    Uiso  ? Pt
   Pt46       1.0     0.568485     0.493849     0.542885    Uiso  ? Pt
   Pt47       1.0     0.547190     0.481973     0.585838    Uiso  ? Pt
   Pt48       1.0     0.526360     0.521779     0.583590    Uiso  ? Pt
   Pt49       1.0     0.570744     0.521591     0.583483    Uiso  ? Pt
   Pt50       1.0     0.592718     0.534261     0.548141    Uiso  ? Pt
   Pt51       1.0     0.544208     0.534020     0.547503    Uiso  ? Pt
   Pt52       1.0     0.527553     0.574656     0.544785    Uiso  ? Pt
   Pt53       1.0     0.546385     0.560471     0.582080    Uiso  ? Pt
   Pt54       1.0     0.569747     0.575795     0.547742    Uiso  ? Pt
   Pt55       1.0     0.500188     0.560238     0.583132    Uiso  ? Pt
   Pt56       1.0     0.478483     0.600802     0.581545    Uiso  ? Pt
   Pt57       1.0     0.523500     0.598680     0.583601    Uiso  ? Pt
   Pt58       1.0     0.546666     0.616502     0.548005    Uiso  ? Pt
   Pt59       1.0     0.498124     0.615615     0.546617    Uiso  ? Pt
   Pt60       1.0     0.478326     0.654713     0.542836    Uiso  ? Pt
   Pt61       1.0     0.501856     0.642496     0.583013    Uiso  ? Pt
   Pt62       1.0     0.522597     0.654324     0.543510    Uiso  ? Pt
   Pt63       1.0     0.454113     0.640994     0.581291    Uiso  ? Pt
   Pt64       1.0     0.590197     0.560141     0.584710    Uiso  ? Pt
   Pt65       1.0     0.568564     0.601023     0.582080    Uiso  ? Pt
   Pt66       1.0     0.546415     0.643771     0.583329    Uiso  ? Pt
   Pt67       1.0     0.406208     0.429522     0.620981    Uiso  ? Pt
   Pt68       1.0     0.383276     0.467206     0.621428    Uiso  ? Pt
   Pt69       1.0     0.361576     0.507563     0.620658    Uiso  ? Pt
   Pt70       1.0     0.341207     0.548358     0.621903    Uiso  ? Pt
   Pt71       1.0     0.429745     0.471321     0.620315    Uiso  ? Pt
   Pt72       1.0     0.477913     0.469692     0.620741    Uiso  ? Pt
   Pt73       1.0     0.454184     0.505533     0.622827    Uiso  ? Pt
   Pt74       1.0     0.409848     0.508416     0.621786    Uiso  ? Pt
   Pt75       1.0     0.386427     0.548796     0.619192    Uiso  ? Pt
   Pt76       1.0     0.430125     0.548793     0.619766    Uiso  ? Pt
   Pt77       1.0     0.409920     0.586126     0.620982    Uiso  ? Pt
   Pt78       1.0     0.361764     0.586159     0.620748    Uiso  ? Pt
   Pt79       1.0     0.386924     0.630043     0.622220    Uiso  ? Pt
   Pt80       1.0     0.519591     0.471077     0.622167    Uiso  ? Pt
   Pt81       1.0     0.548688     0.509656     0.621944    Uiso  ? Pt
   Pt82       1.0     0.498708     0.508593     0.621656    Uiso  ? Pt
   Pt83       1.0     0.476856     0.548977     0.620516    Uiso  ? Pt
   Pt84       1.0     0.523386     0.548981     0.622832    Uiso  ? Pt
   Pt85       1.0     0.500537     0.589411     0.622099    Uiso  ? Pt
   Pt86       1.0     0.452809     0.589373     0.623939    Uiso  ? Pt
   Pt87       1.0     0.435304     0.633639     0.621970    Uiso  ? Pt
   Pt88       1.0     0.477575     0.627839     0.618157    Uiso  ? Pt
   Pt89       1.0     0.568215     0.549559     0.622067    Uiso  ? Pt
   Pt90       1.0     0.546330     0.589628     0.624581    Uiso  ? Pt
   Pt91       1.0     0.519841     0.624607     0.620038    Uiso  ? Pt
   Pt92       1.0     0.500772     0.427792     0.621091    Uiso  ? Pt
   Pt93       1.0     0.453346     0.428821     0.621090    Uiso  ? Pt
   Pt94       1.0     0.455056     0.455709     0.657142    Uiso  ? Pt
   Pt95       1.0     0.409388     0.454762     0.658141    Uiso  ? Pt
   Pt96       1.0     0.381722     0.495806     0.657558    Uiso  ? Pt
   Pt97       1.0     0.431190     0.495863     0.657037    Uiso  ? Pt
   Pt98       1.0     0.408235     0.536947     0.659695    Uiso  ? Pt
   Pt99       1.0     0.362547     0.534774     0.660336    Uiso  ? Pt
   Pt100      1.0     0.385079     0.577295     0.655286    Uiso  ? Pt
   Pt101      1.0     0.501796     0.455688     0.659306    Uiso  ? Pt
   Pt102      1.0     0.476184     0.495239     0.659449    Uiso  ? Pt
   Pt103      1.0     0.522565     0.496479     0.659610    Uiso  ? Pt
   Pt104      1.0     0.501978     0.535783     0.660349    Uiso  ? Pt
   Pt105      1.0     0.455177     0.536782     0.657364    Uiso  ? Pt
   Pt106      1.0     0.431811     0.579314     0.660099    Uiso  ? Pt
   Pt107      1.0     0.477792     0.576221     0.658390    Uiso  ? Pt
   Pt108      1.0     0.453020     0.614796     0.660923    Uiso  ? Pt
   Pt109      1.0     0.410026     0.614939     0.660177    Uiso  ? Pt
   Pt110      1.0     0.545983     0.535123     0.660408    Uiso  ? Pt
   Pt111      1.0     0.524599     0.574138     0.657990    Uiso  ? Pt
   Pt112      1.0     0.499068     0.612736     0.658001    Uiso  ? Pt
   O1         1.0     0.231052     0.236444     0.442005    Uiso  ? O
   O2         1.0     0.196445     0.292393     0.447872    Uiso  ? O
   O3         1.0     0.137249     0.292538     0.445906    Uiso  ? O
   Ce1        1.0     0.136200     0.328042     0.460316    Uiso  ? Ce
   O4         1.0     0.170003     0.347494     0.443720    Uiso  ? O
   O5         1.0     0.135504     0.404119     0.446433    Uiso  ? O
   O6         1.0     0.358351     0.237276     0.446540    Uiso  ? O
   O7         1.0     0.295460     0.236212     0.446507    Uiso  ? O
   O8         1.0     0.321988     0.254300     0.471971    Uiso  ? O
   O9         1.0     0.326824     0.289755     0.442858    Uiso  ? O
   Ce2        1.0     0.232594     0.275014     0.458536    Uiso  ? Ce
   Ce3        1.0     0.294595     0.272462     0.459202    Uiso  ? Ce
   O10        1.0     0.261580     0.255915     0.471510    Uiso  ? O
   O11        1.0     0.264138     0.288594     0.445080    Uiso  ? O
   O12        1.0     0.294222     0.310790     0.472250    Uiso  ? O
   O13        1.0     0.233331     0.307073     0.474306    Uiso  ? O
   O14        1.0     0.261595     0.327528     0.496715    Uiso  ? O
   Ce4        1.0     0.266415     0.327787     0.462098    Uiso  ? Ce
   O15        1.0     0.293537     0.347824     0.443750    Uiso  ? O
   O16        1.0     0.232647     0.348614     0.447435    Uiso  ? O
   O17        1.0     0.260067     0.365339     0.473349    Uiso  ? O
   O18        1.0     0.262237     0.401334     0.445599    Uiso  ? O
   Ce5        1.0     0.199674     0.329017     0.460601    Uiso  ? Ce
   Ce6        1.0     0.167430     0.387467     0.460229    Uiso  ? Ce
   Ce7        1.0     0.230246     0.383339     0.462095    Uiso  ? Ce
   O19        1.0     0.199736     0.364692     0.474811    Uiso  ? O
   O20        1.0     0.232644     0.384191     0.498789    Uiso  ? O
   O21        1.0     0.201582     0.400952     0.448127    Uiso  ? O
   O22        1.0     0.230802     0.422921     0.470357    Uiso  ? O
   O23        1.0     0.168375     0.417725     0.469489    Uiso  ? O
   O24        1.0     0.200640     0.437659     0.495469    Uiso  ? O
   Ce8        1.0     0.196952     0.440285     0.459782    Uiso  ? Ce
   O25        1.0     0.232964     0.460039     0.448188    Uiso  ? O
   O26        1.0     0.169037     0.458744     0.444774    Uiso  ? O
   O27        1.0     0.199461     0.471823     0.471999    Uiso  ? O
   O28        1.0     0.200605     0.511529     0.444803    Uiso  ? O
   Ce9        1.0     0.168232     0.491470     0.461563    Uiso  ? Ce
   O29        1.0     0.170988     0.532733     0.472644    Uiso  ? O
   O30        1.0     0.169364     0.565651     0.448215    Uiso  ? O
   O31        1.0     0.487683     0.234322     0.446372    Uiso  ? O
   O32        1.0     0.419117     0.236002     0.447258    Uiso  ? O
   O33        1.0     0.456242     0.252843     0.470459    Uiso  ? O
   O34        1.0     0.454982     0.289334     0.444208    Uiso  ? O
   Ce10       1.0     0.358675     0.275117     0.462115    Uiso  ? Ce
   Ce11       1.0     0.425945     0.274136     0.457457    Uiso  ? Ce
   O35        1.0     0.392275     0.253919     0.474382    Uiso  ? O
   O36        1.0     0.419908     0.274171     0.496925    Uiso  ? O
   O37        1.0     0.359649     0.274219     0.494730    Uiso  ? O
   O38        1.0     0.388718     0.292249     0.447099    Uiso  ? O
   O39        1.0     0.422388     0.308185     0.471216    Uiso  ? O
   O40        1.0     0.356801     0.311102     0.472897    Uiso  ? O
   O41        1.0     0.388795     0.329986     0.497252    Uiso  ? O
   Ce12       1.0     0.358241     0.308839     0.511577    Uiso  ? Ce
   O42        1.0     0.326972     0.329387     0.497455    Uiso  ? O
   O43        1.0     0.357919     0.347579     0.525793    Uiso  ? O
   Ce13       1.0     0.391102     0.328147     0.462772    Uiso  ? Ce
   O44        1.0     0.419720     0.347005     0.447174    Uiso  ? O
   O45        1.0     0.358781     0.345320     0.446228    Uiso  ? O
   O46        1.0     0.389955     0.362036     0.473625    Uiso  ? O
   O47        1.0     0.391296     0.402307     0.448517    Uiso  ? O
   Ce14       1.0     0.325868     0.326419     0.458080    Uiso  ? Ce
   Ce15       1.0     0.297003     0.384045     0.458176    Uiso  ? Ce
   Ce16       1.0     0.358795     0.382036     0.460875    Uiso  ? Ce
   Ce17       1.0     0.327842     0.366919     0.513513    Uiso  ? Ce
   O48        1.0     0.325491     0.365730     0.473151    Uiso  ? O
   O49        1.0     0.358716     0.380937     0.501424    Uiso  ? O
   O50        1.0     0.296704     0.386239     0.499628    Uiso  ? O
   O51        1.0     0.328036     0.401370     0.526510    Uiso  ? O
   O52        1.0     0.329518     0.399383     0.447281    Uiso  ? O
   O53        1.0     0.358123     0.421745     0.474074    Uiso  ? O
   O54        1.0     0.293845     0.417684     0.474294    Uiso  ? O
   O55        1.0     0.325551     0.435849     0.495754    Uiso  ? O
   Ce18       1.0     0.232425     0.420292     0.509972    Uiso  ? Ce
   Ce19       1.0     0.295964     0.417860     0.509025    Uiso  ? Ce
   O56        1.0     0.261508     0.437758     0.499631    Uiso  ? O
   O57        1.0     0.291775     0.457341     0.519698    Uiso  ? O
   Ce20       1.0     0.326711     0.437134     0.458455    Uiso  ? Ce
   O58        1.0     0.359488     0.455282     0.445605    Uiso  ? O
   O59        1.0     0.293723     0.455045     0.445904    Uiso  ? O
   O60        1.0     0.330294     0.473319     0.471797    Uiso  ? O
   O61        1.0     0.327780     0.512842     0.446369    Uiso  ? O
   Ce21       1.0     0.264388     0.439307     0.460651    Uiso  ? Ce
   Ce22       1.0     0.232450     0.490784     0.458554    Uiso  ? Ce
   Ce23       1.0     0.297315     0.494714     0.458967    Uiso  ? Ce
   Ce24       1.0     0.264918     0.473397     0.511111    Uiso  ? Ce
   O62        1.0     0.266110     0.476545     0.472703    Uiso  ? O
   O63        1.0     0.293856     0.494350     0.498903    Uiso  ? O
   O64        1.0     0.232539     0.494330     0.498784    Uiso  ? O
   O65        1.0     0.265461     0.512902     0.525676    Uiso  ? O
   O66        1.0     0.262816     0.514207     0.447110    Uiso  ? O
   O67        1.0     0.294789     0.529968     0.472076    Uiso  ? O
   O68        1.0     0.236154     0.528563     0.471346    Uiso  ? O
   O69        1.0     0.260833     0.548238     0.495914    Uiso  ? O
   Ce25       1.0     0.231301     0.532943     0.511982    Uiso  ? Ce
   O70        1.0     0.202159     0.550322     0.495131    Uiso  ? O
   O71        1.0     0.229612     0.568289     0.523033    Uiso  ? O
   Ce26       1.0     0.262854     0.548447     0.457696    Uiso  ? Ce
   O72        1.0     0.296283     0.564917     0.446883    Uiso  ? O
   O73        1.0     0.234652     0.572917     0.446354    Uiso  ? O
   O74        1.0     0.264333     0.583164     0.469244    Uiso  ? O
   O75        1.0     0.264700     0.617823     0.445501    Uiso  ? O
   Ce27       1.0     0.195028     0.549456     0.458006    Uiso  ? Ce
   Ce28       1.0     0.170497     0.605075     0.456964    Uiso  ? Ce
   Ce29       1.0     0.235028     0.604516     0.462414    Uiso  ? Ce
   O76        1.0     0.202191     0.582993     0.474365    Uiso  ? O
   O77        1.0     0.229137     0.598512     0.497808    Uiso  ? O
   O78        1.0     0.205021     0.620287     0.446579    Uiso  ? O
   O79        1.0     0.233075     0.640649     0.474742    Uiso  ? O
   O80        1.0     0.204903     0.657510     0.498027    Uiso  ? O
   Ce30       1.0     0.202007     0.655781     0.456035    Uiso  ? Ce
   O81        1.0     0.231664     0.677985     0.445153    Uiso  ? O
   O82        1.0     0.202024     0.695086     0.472159    Uiso  ? O
   O83        1.0     0.204897     0.733402     0.445560    Uiso  ? O
   O84        1.0     0.550697     0.236554     0.523061    Uiso  ? O
   O85        1.0     0.483381     0.236813     0.523817    Uiso  ? O
   O86        1.0     0.613386     0.232913     0.446111    Uiso  ? O
   O87        1.0     0.549463     0.237131     0.446274    Uiso  ? O
   O88        1.0     0.582148     0.255928     0.473261    Uiso  ? O
   O89        1.0     0.580348     0.287527     0.447844    Uiso  ? O
   Ce31       1.0     0.484940     0.272688     0.460628    Uiso  ? Ce
   Ce32       1.0     0.549336     0.273817     0.460409    Uiso  ? Ce
   Ce33       1.0     0.517023     0.250562     0.510885    Uiso  ? Ce
   O90        1.0     0.518198     0.253742     0.470340    Uiso  ? O
   O91        1.0     0.548036     0.271130     0.497713    Uiso  ? O
   O92        1.0     0.484851     0.269739     0.498509    Uiso  ? O
   O93        1.0     0.519206     0.292098     0.521175    Uiso  ? O
   O94        1.0     0.518500     0.289565     0.448469    Uiso  ? O
   O95        1.0     0.546868     0.308867     0.469411    Uiso  ? O
   O96        1.0     0.484046     0.312916     0.471531    Uiso  ? O
   O97        1.0     0.516429     0.326266     0.495114    Uiso  ? O
   Ce34       1.0     0.456259     0.252619     0.512079    Uiso  ? Ce
   Ce35       1.0     0.419689     0.309259     0.513300    Uiso  ? Ce
   Ce36       1.0     0.484903     0.311179     0.510302    Uiso  ? Ce
   O98        1.0     0.453821     0.291444     0.525396    Uiso  ? O
   O99        1.0     0.458536     0.328549     0.495078    Uiso  ? O
   O100       1.0     0.487535     0.348091     0.523037    Uiso  ? O
   O101       1.0     0.424575     0.345481     0.525306    Uiso  ? O
   Ce37       1.0     0.518519     0.324078     0.458836    Uiso  ? Ce
   O102       1.0     0.547225     0.343215     0.446761    Uiso  ? O
   O103       1.0     0.487832     0.347144     0.444741    Uiso  ? O
   O104       1.0     0.518349     0.360939     0.472445    Uiso  ? O
   O105       1.0     0.516224     0.402061     0.447247    Uiso  ? O
   Ce38       1.0     0.450392     0.326979     0.459122    Uiso  ? Ce
   Ce39       1.0     0.421071     0.382202     0.460249    Uiso  ? Ce
   Ce40       1.0     0.486078     0.383587     0.457605    Uiso  ? Ce
   Ce41       1.0     0.452457     0.366558     0.510569    Uiso  ? Ce
   O106       1.0     0.455923     0.363465     0.473188    Uiso  ? O
   O107       1.0     0.486187     0.382848     0.499724    Uiso  ? O
   O108       1.0     0.420353     0.382822     0.500102    Uiso  ? O
   O109       1.0     0.454381     0.402803     0.527801    Uiso  ? O
   O110       1.0     0.454262     0.402805     0.444129    Uiso  ? O
   O111       1.0     0.485979     0.418867     0.469066    Uiso  ? O
   O112       1.0     0.424068     0.421775     0.470631    Uiso  ? O
   O113       1.0     0.453792     0.436693     0.497112    Uiso  ? O
   Ce42       1.0     0.391605     0.365473     0.514277    Uiso  ? Ce
   Ce43       1.0     0.357375     0.418937     0.512281    Uiso  ? Ce
   Ce44       1.0     0.423425     0.419239     0.511567    Uiso  ? Ce
   O114       1.0     0.389249     0.402070     0.523628    Uiso  ? O
   O115       1.0     0.393105     0.437938     0.498898    Uiso  ? O
   Ce45       1.0     0.452195     0.434481     0.459441    Uiso  ? Ce
   O116       1.0     0.488725     0.456358     0.447313    Uiso  ? O
   O117       1.0     0.422687     0.456442     0.447761    Uiso  ? O
   O118       1.0     0.454439     0.473294     0.471713    Uiso  ? O
   O119       1.0     0.454831     0.512346     0.446131    Uiso  ? O
   Ce46       1.0     0.391287     0.440820     0.457823    Uiso  ? Ce
   Ce47       1.0     0.358805     0.492942     0.459991    Uiso  ? Ce
   Ce48       1.0     0.419770     0.493118     0.459720    Uiso  ? Ce
   Ce49       1.0     0.391362     0.474724     0.511315    Uiso  ? Ce
   O120       1.0     0.391552     0.478086     0.475477    Uiso  ? O
   O121       1.0     0.423558     0.490895     0.496303    Uiso  ? O
   O122       1.0     0.360316     0.490453     0.496384    Uiso  ? O
   O123       1.0     0.389211     0.513230     0.522341    Uiso  ? O
   O124       1.0     0.388526     0.511391     0.448031    Uiso  ? O
   O125       1.0     0.421025     0.527759     0.474336    Uiso  ? O
   O126       1.0     0.360324     0.529116     0.473916    Uiso  ? O
   O127       1.0     0.390949     0.546173     0.497973    Uiso  ? O
   Ce50       1.0     0.325560     0.472991     0.516894    Uiso  ? Ce
   Ce51       1.0     0.295048     0.529365     0.510964    Uiso  ? Ce
   Ce52       1.0     0.362245     0.527616     0.507730    Uiso  ? Ce
   O128       1.0     0.330471     0.511353     0.525635    Uiso  ? O
   O129       1.0     0.327695     0.547391     0.498850    Uiso  ? O
   O130       1.0     0.358187     0.568378     0.525218    Uiso  ? O
   O131       1.0     0.296318     0.564300     0.524135    Uiso  ? O
   Ce53       1.0     0.392642     0.547757     0.459293    Uiso  ? Ce
   O132       1.0     0.423161     0.564638     0.448544    Uiso  ? O
   O133       1.0     0.360508     0.566406     0.446644    Uiso  ? O
   O134       1.0     0.389401     0.585134     0.471124    Uiso  ? O
   O135       1.0     0.393601     0.618927     0.446308    Uiso  ? O
   Ce54       1.0     0.328280     0.546870     0.456693    Uiso  ? Ce
   Ce55       1.0     0.297894     0.600795     0.459058    Uiso  ? Ce
   Ce56       1.0     0.357668     0.604866     0.453549    Uiso  ? Ce
   Ce57       1.0     0.326598     0.582417     0.509406    Uiso  ? Ce
   O136       1.0     0.326867     0.584533     0.471074    Uiso  ? O
   O137       1.0     0.361252     0.601868     0.498977    Uiso  ? O
   O138       1.0     0.297317     0.599567     0.496867    Uiso  ? O
   O139       1.0     0.325422     0.621650     0.526292    Uiso  ? O
   O140       1.0     0.330664     0.620312     0.447111    Uiso  ? O
   O141       1.0     0.357261     0.638313     0.471672    Uiso  ? O
   O142       1.0     0.293290     0.637177     0.470677    Uiso  ? O
   O143       1.0     0.329117     0.657064     0.498815    Uiso  ? O
   Ce58       1.0     0.263794     0.584441     0.509650    Uiso  ? Ce
   Ce59       1.0     0.233591     0.637704     0.508955    Uiso  ? Ce
   Ce60       1.0     0.296737     0.638791     0.511989    Uiso  ? Ce
   O144       1.0     0.266404     0.621708     0.525329    Uiso  ? O
   O145       1.0     0.268065     0.658154     0.501097    Uiso  ? O
   O146       1.0     0.298853     0.674378     0.525193    Uiso  ? O
   O147       1.0     0.235467     0.676234     0.524320    Uiso  ? O
   Ce61       1.0     0.324272     0.655777     0.459786    Uiso  ? Ce
   O148       1.0     0.360972     0.678178     0.447032    Uiso  ? O
   O149       1.0     0.295825     0.674372     0.444039    Uiso  ? O
   O150       1.0     0.326220     0.695661     0.469537    Uiso  ? O
   O151       1.0     0.330352     0.732466     0.445121    Uiso  ? O
   Ce62       1.0     0.264817     0.658483     0.457217    Uiso  ? Ce
   Ce63       1.0     0.234955     0.713157     0.459761    Uiso  ? Ce
   Ce64       1.0     0.297106     0.715711     0.459877    Uiso  ? Ce
   Ce65       1.0     0.264694     0.692006     0.511823    Uiso  ? Ce
   O152       1.0     0.264354     0.694267     0.473182    Uiso  ? O
   O153       1.0     0.295962     0.708801     0.496109    Uiso  ? O
   O154       1.0     0.233242     0.714264     0.499145    Uiso  ? O
   O155       1.0     0.265303     0.731019     0.521141    Uiso  ? O
   O156       1.0     0.262669     0.730150     0.444706    Uiso  ? O
   O157       1.0     0.297822     0.748085     0.473318    Uiso  ? O
   O158       1.0     0.230692     0.748743     0.472023    Uiso  ? O
   Ce66       1.0     0.199278     0.692662     0.510738    Uiso  ? Ce
   Ce67       1.0     0.231581     0.747712     0.514469    Uiso  ? Ce
   O159       1.0     0.676767     0.230868     0.523904    Uiso  ? O
   O160       1.0     0.609363     0.234211     0.524988    Uiso  ? O
   O161       1.0     0.675429     0.234928     0.444398    Uiso  ? O
   O162       1.0     0.706237     0.253831     0.469992    Uiso  ? O
   O163       1.0     0.704670     0.287756     0.446145    Uiso  ? O
   Ce68       1.0     0.612364     0.269086     0.459922    Uiso  ? Ce
   Ce69       1.0     0.673607     0.268683     0.457604    Uiso  ? Ce
   Ce70       1.0     0.641993     0.253869     0.510090    Uiso  ? Ce
   O164       1.0     0.644275     0.252431     0.474019    Uiso  ? O
   O165       1.0     0.676812     0.271037     0.499156    Uiso  ? O
   O166       1.0     0.612857     0.270767     0.495558    Uiso  ? O
   O167       1.0     0.646461     0.290392     0.524155    Uiso  ? O
   O168       1.0     0.645129     0.291392     0.444332    Uiso  ? O
   O169       1.0     0.675656     0.307495     0.471794    Uiso  ? O
   O170       1.0     0.613103     0.307566     0.472530    Uiso  ? O
   O171       1.0     0.644843     0.322731     0.497917    Uiso  ? O
   Ce71       1.0     0.581666     0.254361     0.512873    Uiso  ? Ce
   Ce72       1.0     0.547796     0.308994     0.513395    Uiso  ? Ce
   Ce73       1.0     0.612136     0.313138     0.512035    Uiso  ? Ce
   O172       1.0     0.577703     0.290951     0.522130    Uiso  ? O
   O173       1.0     0.578686     0.326020     0.499634    Uiso  ? O
   O174       1.0     0.610350     0.346818     0.525227    Uiso  ? O
   O175       1.0     0.548756     0.346929     0.524882    Uiso  ? O
   Ce74       1.0     0.641257     0.324953     0.458931    Uiso  ? Ce
   O176       1.0     0.672519     0.342583     0.446615    Uiso  ? O
   O177       1.0     0.609591     0.346817     0.446312    Uiso  ? O
   O178       1.0     0.643268     0.361911     0.473909    Uiso  ? O
   O179       1.0     0.646005     0.399812     0.448431    Uiso  ? O
   Ce75       1.0     0.579245     0.327048     0.460941    Uiso  ? Ce
   Ce76       1.0     0.550826     0.382111     0.460142    Uiso  ? Ce
   Ce77       1.0     0.613977     0.382191     0.458944    Uiso  ? Ce
   Ce78       1.0     0.580805     0.366902     0.513148    Uiso  ? Ce
   O180       1.0     0.578431     0.364800     0.474909    Uiso  ? O
   O181       1.0     0.611321     0.382686     0.496572    Uiso  ? O
   O182       1.0     0.544568     0.382242     0.498365    Uiso  ? O
   O183       1.0     0.580200     0.399450     0.525561    Uiso  ? O
   O184       1.0     0.580477     0.400380     0.446953    Uiso  ? O
   O185       1.0     0.610469     0.416055     0.472462    Uiso  ? O
   O186       1.0     0.550936     0.418039     0.471436    Uiso  ? O
   O187       1.0     0.578396     0.436555     0.498419    Uiso  ? O
   Ce79       1.0     0.514684     0.365410     0.512492    Uiso  ? Ce
   Ce80       1.0     0.485155     0.418181     0.512736    Uiso  ? Ce
   Ce81       1.0     0.549828     0.419820     0.509894    Uiso  ? Ce
   O188       1.0     0.516944     0.399515     0.523252    Uiso  ? O
   O189       1.0     0.515976     0.439440     0.495638    Uiso  ? O
   O190       1.0     0.486595     0.454520     0.524028    Uiso  ? O
   Ce82       1.0     0.583836     0.437963     0.460702    Uiso  ? Ce
   O191       1.0     0.613690     0.453557     0.448487    Uiso  ? O
   O192       1.0     0.549597     0.454284     0.447263    Uiso  ? O
   O193       1.0     0.580398     0.475444     0.471806    Uiso  ? O
   O194       1.0     0.578205     0.509766     0.446238    Uiso  ? O
   Ce83       1.0     0.515581     0.438789     0.457466    Uiso  ? Ce
   Ce84       1.0     0.486022     0.492292     0.460054    Uiso  ? Ce
   Ce85       1.0     0.549507     0.487807     0.459795    Uiso  ? Ce
   Ce86       1.0     0.518201     0.472027     0.510814    Uiso  ? Ce
   O195       1.0     0.516324     0.472659     0.472539    Uiso  ? O
   O196       1.0     0.551452     0.490824     0.498765    Uiso  ? O
   O197       1.0     0.484682     0.493114     0.499857    Uiso  ? O
   O198       1.0     0.520142     0.512432     0.524098    Uiso  ? O
   O199       1.0     0.518170     0.510497     0.446996    Uiso  ? O
   O200       1.0     0.550751     0.526892     0.471380    Uiso  ? O
   O201       1.0     0.487731     0.527303     0.472935    Uiso  ? O
   O202       1.0     0.516794     0.547397     0.501280    Uiso  ? O
   Ce87       1.0     0.453216     0.473777     0.508226    Uiso  ? Ce
   Ce88       1.0     0.421176     0.529010     0.512684    Uiso  ? Ce
   Ce89       1.0     0.484930     0.528942     0.511718    Uiso  ? Ce
   O203       1.0     0.453648     0.509533     0.524910    Uiso  ? O
   O204       1.0     0.452323     0.547562     0.500298    Uiso  ? O
   O205       1.0     0.486240     0.564862     0.524894    Uiso  ? O
   Ce90       1.0     0.518431     0.548985     0.461399    Uiso  ? Ce
   O206       1.0     0.548753     0.562961     0.446396    Uiso  ? O
   O207       1.0     0.486478     0.565530     0.446112    Uiso  ? O
   O208       1.0     0.521571     0.582595     0.477092    Uiso  ? O
   O209       1.0     0.518712     0.621204     0.447248    Uiso  ? O
   Ce91       1.0     0.453792     0.545522     0.459295    Uiso  ? Ce
   Ce92       1.0     0.424978     0.603128     0.459454    Uiso  ? Ce
   Ce93       1.0     0.487575     0.604286     0.459304    Uiso  ? Ce
   Ce94       1.0     0.455735     0.585203     0.508842    Uiso  ? Ce
   O210       1.0     0.452727     0.583788     0.472893    Uiso  ? O
   O211       1.0     0.484705     0.600547     0.497112    Uiso  ? O
   O212       1.0     0.422914     0.602647     0.498901    Uiso  ? O
   O213       1.0     0.453195     0.618879     0.447900    Uiso  ? O
   O214       1.0     0.485127     0.639548     0.470087    Uiso  ? O
   O215       1.0     0.421468     0.641345     0.472736    Uiso  ? O
   O216       1.0     0.454657     0.656727     0.499165    Uiso  ? O
   Ce95       1.0     0.391382     0.583904     0.512962    Uiso  ? Ce
   Ce96       1.0     0.356781     0.640273     0.510603    Uiso  ? Ce
   Ce97       1.0     0.423626     0.638760     0.514262    Uiso  ? Ce
   O217       1.0     0.394190     0.621262     0.525526    Uiso  ? O
   O218       1.0     0.393865     0.655184     0.499859    Uiso  ? O
   O219       1.0     0.425002     0.675683     0.524472    Uiso  ? O
   O220       1.0     0.361141     0.676442     0.526672    Uiso  ? O
   Ce98       1.0     0.456613     0.658292     0.461541    Uiso  ? Ce
   O221       1.0     0.485645     0.673409     0.448604    Uiso  ? O
   O222       1.0     0.420979     0.676684     0.445040    Uiso  ? O
   O223       1.0     0.456596     0.693918     0.474961    Uiso  ? O
   O224       1.0     0.455899     0.729079     0.444531    Uiso  ? O
   Ce99       1.0     0.392809     0.656839     0.462955    Uiso  ? Ce
   Ce100      1.0     0.363560     0.712543     0.458778    Uiso  ? Ce
   Ce101      1.0     0.424589     0.711002     0.459893    Uiso  ? Ce
   Ce102      1.0     0.389903     0.692957     0.509613    Uiso  ? Ce
   O225       1.0     0.388109     0.695379     0.473520    Uiso  ? O
   O226       1.0     0.426398     0.715833     0.500752    Uiso  ? O
   O227       1.0     0.362994     0.714120     0.500198    Uiso  ? O
   O228       1.0     0.391480     0.732811     0.524808    Uiso  ? O
   O229       1.0     0.391164     0.732301     0.443477    Uiso  ? O
   O230       1.0     0.424512     0.746622     0.473528    Uiso  ? O
   O231       1.0     0.360138     0.749980     0.470336    Uiso  ? O
   Ce103      1.0     0.329312     0.691849     0.510416    Uiso  ? Ce
   Ce104      1.0     0.295807     0.750875     0.515177    Uiso  ? Ce
   Ce105      1.0     0.359972     0.749353     0.512418    Uiso  ? Ce
   O232       1.0     0.328408     0.729740     0.525172    Uiso  ? O
   Ce106      1.0     0.737751     0.271194     0.461736    Uiso  ? Ce
   O233       1.0     0.737581     0.271959     0.498193    Uiso  ? O
   O234       1.0     0.739038     0.307578     0.474455    Uiso  ? O
   O235       1.0     0.773036     0.326936     0.500196    Uiso  ? O
   Ce107      1.0     0.705346     0.255636     0.512148    Uiso  ? Ce
   Ce108      1.0     0.676283     0.306078     0.510298    Uiso  ? Ce
   Ce109      1.0     0.739594     0.305938     0.512498    Uiso  ? Ce
   O236       1.0     0.707505     0.287659     0.523792    Uiso  ? O
   O237       1.0     0.711351     0.324103     0.497907    Uiso  ? O
   O238       1.0     0.737984     0.343063     0.522121    Uiso  ? O
   O239       1.0     0.673739     0.344499     0.522510    Uiso  ? O
   Ce110      1.0     0.769810     0.326809     0.461252    Uiso  ? Ce
   O240       1.0     0.802469     0.343907     0.450329    Uiso  ? O
   O241       1.0     0.737347     0.343517     0.447899    Uiso  ? O
   O242       1.0     0.770075     0.365101     0.471110    Uiso  ? O
   O243       1.0     0.770153     0.397733     0.446239    Uiso  ? O
   Ce111      1.0     0.707387     0.327420     0.457869    Uiso  ? Ce
   Ce112      1.0     0.675409     0.380443     0.458396    Uiso  ? Ce
   Ce113      1.0     0.741620     0.381199     0.456887    Uiso  ? Ce
   Ce114      1.0     0.706698     0.362988     0.515095    Uiso  ? Ce
   O244       1.0     0.706316     0.364322     0.474066    Uiso  ? O
   O245       1.0     0.739597     0.381241     0.498513    Uiso  ? O
   O246       1.0     0.676059     0.385302     0.498146    Uiso  ? O
   O247       1.0     0.708386     0.399452     0.526483    Uiso  ? O
   O248       1.0     0.708029     0.398362     0.444706    Uiso  ? O
   O249       1.0     0.739756     0.416684     0.472178    Uiso  ? O
   O250       1.0     0.674509     0.418485     0.472950    Uiso  ? O
   O251       1.0     0.704796     0.437538     0.498430    Uiso  ? O
   Ce115      1.0     0.642743     0.361748     0.511099    Uiso  ? Ce
   Ce116      1.0     0.612976     0.418741     0.512202    Uiso  ? Ce
   Ce117      1.0     0.675089     0.418671     0.511571    Uiso  ? Ce
   O252       1.0     0.644063     0.399786     0.526934    Uiso  ? O
   O253       1.0     0.646165     0.436797     0.496720    Uiso  ? O
   O254       1.0     0.675205     0.454548     0.527550    Uiso  ? O
   O255       1.0     0.611770     0.454529     0.519682    Uiso  ? O
   Ce118      1.0     0.708271     0.439661     0.459388    Uiso  ? Ce
   O256       1.0     0.740350     0.453018     0.446344    Uiso  ? O
   O257       1.0     0.677697     0.454151     0.450030    Uiso  ? O
   O258       1.0     0.708918     0.472245     0.472773    Uiso  ? O
   O259       1.0     0.708625     0.507233     0.448555    Uiso  ? O
   Ce119      1.0     0.646603     0.436240     0.457113    Uiso  ? Ce
   Ce120      1.0     0.611650     0.491645     0.460062    Uiso  ? Ce
   Ce121      1.0     0.679002     0.489153     0.457633    Uiso  ? Ce
   Ce122      1.0     0.644292     0.473113     0.512056    Uiso  ? Ce
   O260       1.0     0.645436     0.474041     0.476224    Uiso  ? O
   O261       1.0     0.676395     0.491116     0.495561    Uiso  ? O
   O262       1.0     0.611540     0.489521     0.497943    Uiso  ? O
   O263       1.0     0.643893     0.512866     0.526383    Uiso  ? O
   O264       1.0     0.642953     0.510198     0.447130    Uiso  ? O
   O265       1.0     0.678047     0.528954     0.472408    Uiso  ? O
   O266       1.0     0.612547     0.526247     0.472143    Uiso  ? O
   O267       1.0     0.646139     0.543868     0.497374    Uiso  ? O
   Ce123      1.0     0.582275     0.469496     0.510268    Uiso  ? Ce
   Ce124      1.0     0.547705     0.529068     0.513565    Uiso  ? Ce
   Ce125      1.0     0.613901     0.530044     0.513582    Uiso  ? Ce
   O268       1.0     0.582017     0.510699     0.525816    Uiso  ? O
   O269       1.0     0.577626     0.545690     0.501410    Uiso  ? O
   O270       1.0     0.610687     0.565219     0.525295    Uiso  ? O
   O271       1.0     0.549156     0.562767     0.523715    Uiso  ? O
   Ce126      1.0     0.640941     0.546617     0.458177    Uiso  ? Ce
   O272       1.0     0.675057     0.565271     0.445452    Uiso  ? O
   O273       1.0     0.612744     0.563584     0.445845    Uiso  ? O
   O274       1.0     0.643660     0.581273     0.475962    Uiso  ? O
   O275       1.0     0.644197     0.619996     0.443910    Uiso  ? O
   Ce127      1.0     0.577975     0.545813     0.462990    Uiso  ? Ce
   Ce128      1.0     0.550881     0.603923     0.459712    Uiso  ? Ce
   Ce129      1.0     0.614488     0.600905     0.459254    Uiso  ? Ce
   Ce130      1.0     0.584661     0.584143     0.508179    Uiso  ? Ce
   O276       1.0     0.582679     0.581142     0.472360    Uiso  ? O
   O277       1.0     0.612735     0.603571     0.497127    Uiso  ? O
   O278       1.0     0.549474     0.603533     0.500897    Uiso  ? O
   O279       1.0     0.581894     0.621609     0.526560    Uiso  ? O
   O280       1.0     0.584360     0.621072     0.449361    Uiso  ? O
   O281       1.0     0.614805     0.636396     0.470315    Uiso  ? O
   O282       1.0     0.549151     0.638865     0.470244    Uiso  ? O
   O283       1.0     0.580751     0.657957     0.497079    Uiso  ? O
   Ce131      1.0     0.520663     0.581722     0.511991    Uiso  ? Ce
   Ce132      1.0     0.489177     0.642628     0.508802    Uiso  ? Ce
   Ce133      1.0     0.548402     0.638537     0.512192    Uiso  ? Ce
   O284       1.0     0.519580     0.623769     0.527478    Uiso  ? O
   O285       1.0     0.515292     0.659775     0.498278    Uiso  ? O
   O286       1.0     0.548781     0.675179     0.526608    Uiso  ? O
   O287       1.0     0.489125     0.675594     0.523132    Uiso  ? O
   Ce134      1.0     0.582409     0.654996     0.459432    Uiso  ? Ce
   O288       1.0     0.613977     0.674373     0.449272    Uiso  ? O
   O289       1.0     0.550189     0.675000     0.448224    Uiso  ? O
   O290       1.0     0.583793     0.691579     0.476708    Uiso  ? O
   O291       1.0     0.583043     0.732939     0.447450    Uiso  ? O
   Ce135      1.0     0.518093     0.657575     0.460373    Uiso  ? Ce
   Ce136      1.0     0.488283     0.712440     0.461233    Uiso  ? Ce
   Ce137      1.0     0.551912     0.711689     0.459103    Uiso  ? Ce
   Ce138      1.0     0.519407     0.693865     0.511091    Uiso  ? Ce
   O292       1.0     0.519113     0.692016     0.472259    Uiso  ? O
   O293       1.0     0.550266     0.712015     0.497093    Uiso  ? O
   O294       1.0     0.486287     0.714444     0.499312    Uiso  ? O
   O295       1.0     0.520661     0.728603     0.524356    Uiso  ? O
   O296       1.0     0.517480     0.726771     0.446594    Uiso  ? O
   O297       1.0     0.550212     0.750596     0.472187    Uiso  ? O
   O298       1.0     0.486531     0.750798     0.471748    Uiso  ? O
   Ce139      1.0     0.454507     0.696099     0.514648    Uiso  ? Ce
   Ce140      1.0     0.421259     0.749301     0.509998    Uiso  ? Ce
   Ce141      1.0     0.485716     0.749330     0.510571    Uiso  ? Ce
   O299       1.0     0.456242     0.730590     0.524360    Uiso  ? O
   Ce142      1.0     0.800372     0.380962     0.458502    Uiso  ? Ce
   O300       1.0     0.801500     0.415709     0.475360    Uiso  ? O
   Ce143      1.0     0.765582     0.361525     0.511065    Uiso  ? Ce
   Ce144      1.0     0.741097     0.418814     0.511822    Uiso  ? Ce
   O301       1.0     0.769499     0.397142     0.525315    Uiso  ? O
   O302       1.0     0.774120     0.439131     0.497333    Uiso  ? O
   O303       1.0     0.738885     0.457147     0.525962    Uiso  ? O
   O304       1.0     0.803444     0.452706     0.446409    Uiso  ? O
   Ce145      1.0     0.772633     0.435962     0.461923    Uiso  ? Ce
   Ce146      1.0     0.740540     0.492473     0.463052    Uiso  ? Ce
   Ce147      1.0     0.802241     0.490112     0.461849    Uiso  ? Ce
   Ce148      1.0     0.770981     0.472139     0.511018    Uiso  ? Ce
   O305       1.0     0.773788     0.473352     0.472710    Uiso  ? O
   O306       1.0     0.739878     0.490794     0.496971    Uiso  ? O
   O307       1.0     0.771706     0.511931     0.524548    Uiso  ? O
   O308       1.0     0.773497     0.510378     0.446454    Uiso  ? O
   O309       1.0     0.802785     0.529097     0.471799    Uiso  ? O
   O310       1.0     0.742260     0.525795     0.474426    Uiso  ? O
   O311       1.0     0.771561     0.546619     0.501224    Uiso  ? O
   Ce149      1.0     0.710000     0.473334     0.511363    Uiso  ? Ce
   Ce150      1.0     0.678659     0.527260     0.512018    Uiso  ? Ce
   Ce151      1.0     0.740058     0.525193     0.513198    Uiso  ? Ce
   O312       1.0     0.709708     0.508695     0.527091    Uiso  ? O
   O313       1.0     0.707366     0.548800     0.499337    Uiso  ? O
   O314       1.0     0.739991     0.564760     0.527148    Uiso  ? O
   O315       1.0     0.676121     0.562732     0.525026    Uiso  ? O
   Ce152      1.0     0.773299     0.543944     0.460315    Uiso  ? Ce
   O316       1.0     0.802398     0.566959     0.446599    Uiso  ? O
   O317       1.0     0.739031     0.564946     0.447366    Uiso  ? O
   O318       1.0     0.770032     0.583884     0.473896    Uiso  ? O
   O319       1.0     0.771909     0.620643     0.447673    Uiso  ? O
   Ce153      1.0     0.705150     0.547256     0.460620    Uiso  ? Ce
   Ce154      1.0     0.673166     0.601658     0.460163    Uiso  ? Ce
   Ce155      1.0     0.742543     0.599907     0.459624    Uiso  ? Ce
   Ce156      1.0     0.707342     0.584690     0.514159    Uiso  ? Ce
   O320       1.0     0.707983     0.581274     0.473549    Uiso  ? O
   O321       1.0     0.743150     0.599796     0.497605    Uiso  ? O
   O322       1.0     0.677567     0.603613     0.497366    Uiso  ? O
   O323       1.0     0.710921     0.619430     0.524094    Uiso  ? O
   O324       1.0     0.708886     0.619885     0.446644    Uiso  ? O
   O325       1.0     0.742172     0.637094     0.471463    Uiso  ? O
   O326       1.0     0.677979     0.640165     0.472915    Uiso  ? O
   O327       1.0     0.710671     0.652446     0.496346    Uiso  ? O
   Ce157      1.0     0.645463     0.583173     0.510954    Uiso  ? Ce
   Ce158      1.0     0.612110     0.640358     0.511771    Uiso  ? Ce
   Ce159      1.0     0.677657     0.639580     0.510154    Uiso  ? Ce
   O328       1.0     0.645416     0.623335     0.521547    Uiso  ? O
   O329       1.0     0.646037     0.654252     0.498239    Uiso  ? O
   O330       1.0     0.678690     0.673808     0.520206    Uiso  ? O
   O331       1.0     0.612970     0.672608     0.521488    Uiso  ? O
   Ce160      1.0     0.708940     0.654547     0.459369    Uiso  ? Ce
   O332       1.0     0.742546     0.672282     0.448283    Uiso  ? O
   O333       1.0     0.675372     0.672738     0.445827    Uiso  ? O
   O334       1.0     0.707608     0.689911     0.472812    Uiso  ? O
   O335       1.0     0.711630     0.729208     0.446676    Uiso  ? O
   Ce161      1.0     0.644491     0.654018     0.460529    Uiso  ? Ce
   Ce162      1.0     0.614959     0.712656     0.459312    Uiso  ? Ce
   Ce163      1.0     0.677690     0.711895     0.461692    Uiso  ? Ce
   Ce164      1.0     0.643656     0.695312     0.510565    Uiso  ? Ce
   O336       1.0     0.646503     0.693543     0.472901    Uiso  ? O
   O337       1.0     0.675995     0.711090     0.500925    Uiso  ? O
   O338       1.0     0.611656     0.708392     0.498752    Uiso  ? O
   O339       1.0     0.644643     0.730219     0.525712    Uiso  ? O
   O340       1.0     0.646302     0.730499     0.446187    Uiso  ? O
   O341       1.0     0.679208     0.750696     0.471233    Uiso  ? O
   O342       1.0     0.615146     0.746484     0.468742    Uiso  ? O
   Ce165      1.0     0.582284     0.692281     0.512843    Uiso  ? Ce
   Ce166      1.0     0.551811     0.752875     0.512687    Uiso  ? Ce
   Ce167      1.0     0.614187     0.752838     0.513030    Uiso  ? Ce
   O343       1.0     0.580590     0.729077     0.524574    Uiso  ? O
   Ce168      1.0     0.801353     0.601382     0.458486    Uiso  ? Ce
   O344       1.0     0.804442     0.636307     0.473953    Uiso  ? O
   Ce169      1.0     0.774265     0.578791     0.510572    Uiso  ? Ce
   Ce170      1.0     0.736973     0.636792     0.509519    Uiso  ? Ce
   O345       1.0     0.770641     0.619116     0.526914    Uiso  ? O
   O346       1.0     0.773587     0.656961     0.499197    Uiso  ? O
   O347       1.0     0.741605     0.672432     0.523249    Uiso  ? O
   O348       1.0     0.805937     0.676383     0.446640    Uiso  ? O
   Ce171      1.0     0.772338     0.657169     0.459385    Uiso  ? Ce
   Ce172      1.0     0.743044     0.712460     0.460679    Uiso  ? Ce
   Ce173      1.0     0.806718     0.708694     0.463228    Uiso  ? Ce
   Ce174      1.0     0.773762     0.694556     0.513678    Uiso  ? Ce
   O349       1.0     0.769971     0.692315     0.472641    Uiso  ? O
   O350       1.0     0.741778     0.712696     0.499089    Uiso  ? O
   O351       1.0     0.771827     0.729036     0.525806    Uiso  ? O
   O352       1.0     0.773374     0.728431     0.447265    Uiso  ? O
   O353       1.0     0.739774     0.748164     0.472885    Uiso  ? O
   Ce175      1.0     0.708950     0.692217     0.510315    Uiso  ? Ce
   Ce176      1.0     0.679295     0.747953     0.508403    Uiso  ? Ce
   Ce177      1.0     0.738930     0.746174     0.511330    Uiso  ? Ce
   O354       1.0     0.710808     0.730220     0.524054    Uiso  ? O
   O355       1.0     0.167121     0.235835     0.367945    Uiso  ? O
   O356       1.0     0.138484     0.292468     0.367106    Uiso  ? O
   O357       1.0     0.105150     0.310419     0.394565    Uiso  ? O
   O358       1.0     0.100000     0.347989     0.372137    Uiso  ? O
   O359       1.0     0.295447     0.233735     0.368059    Uiso  ? O
   O360       1.0     0.230504     0.239767     0.366286    Uiso  ? O
   O361       1.0     0.265360     0.254267     0.396933    Uiso  ? O
   Ce178      1.0     0.167612     0.237906     0.410392    Uiso  ? Ce
   Ce179      1.0     0.230811     0.236138     0.410121    Uiso  ? Ce
   O362       1.0     0.200544     0.255185     0.397856    Uiso  ? O
   O363       1.0     0.232923     0.273976     0.422182    Uiso  ? O
   O364       1.0     0.169630     0.271808     0.420048    Uiso  ? O
   O365       1.0     0.262263     0.293930     0.368812    Uiso  ? O
   Ce180      1.0     0.198760     0.289216     0.407832    Uiso  ? Ce
   O366       1.0     0.199676     0.291776     0.366105    Uiso  ? O
   O367       1.0     0.228646     0.312121     0.394376    Uiso  ? O
   O368       1.0     0.165872     0.311715     0.394466    Uiso  ? O
   O369       1.0     0.199180     0.330060     0.422900    Uiso  ? O
   O370       1.0     0.228981     0.344508     0.369771    Uiso  ? O
   O371       1.0     0.171676     0.346389     0.369192    Uiso  ? O
   O372       1.0     0.199978     0.363873     0.392097    Uiso  ? O
   Ce181      1.0     0.136799     0.290527     0.407111    Uiso  ? Ce
   Ce182      1.0     0.166819     0.348597     0.408799    Uiso  ? Ce
   O373       1.0     0.138092     0.331519     0.420998    Uiso  ? O
   O374       1.0     0.133733     0.370109     0.395719    Uiso  ? O
   O375       1.0     0.168103     0.384259     0.419957    Uiso  ? O
   O376       1.0     0.200011     0.404049     0.368114    Uiso  ? O
   Ce183      1.0     0.137524     0.405310     0.408524    Uiso  ? Ce
   O377       1.0     0.138739     0.400066     0.368359    Uiso  ? O
   O378       1.0     0.171881     0.423664     0.392439    Uiso  ? O
   O379       1.0     0.139282     0.441416     0.419563    Uiso  ? O
   O380       1.0     0.167689     0.457635     0.367429    Uiso  ? O
   O381       1.0     0.133996     0.475134     0.392797    Uiso  ? O
   O382       1.0     0.136409     0.513125     0.367167    Uiso  ? O
   O383       1.0     0.422251     0.234652     0.370940    Uiso  ? O
   O384       1.0     0.356676     0.238394     0.369131    Uiso  ? O
   O385       1.0     0.389770     0.253611     0.394041    Uiso  ? O
   Ce184      1.0     0.296134     0.240942     0.407975    Uiso  ? Ce
   Ce185      1.0     0.357831     0.237067     0.407762    Uiso  ? Ce
   O386       1.0     0.327836     0.255992     0.395206    Uiso  ? O
   O387       1.0     0.358984     0.273110     0.422847    Uiso  ? O
   O388       1.0     0.294807     0.278408     0.421927    Uiso  ? O
   O389       1.0     0.391356     0.289880     0.367373    Uiso  ? O
   Ce186      1.0     0.325455     0.292609     0.407679    Uiso  ? Ce
   O390       1.0     0.327460     0.290490     0.369417    Uiso  ? O
   O391       1.0     0.358123     0.309793     0.399005    Uiso  ? O
   O392       1.0     0.293666     0.309192     0.392413    Uiso  ? O
   O393       1.0     0.327822     0.327016     0.422858    Uiso  ? O
   O394       1.0     0.360318     0.345529     0.370580    Uiso  ? O
   O395       1.0     0.296893     0.347525     0.370795    Uiso  ? O
   O396       1.0     0.326930     0.365798     0.394847    Uiso  ? O
   Ce187      1.0     0.263288     0.293967     0.407831    Uiso  ? Ce
   Ce188      1.0     0.229471     0.346264     0.409069    Uiso  ? Ce
   Ce189      1.0     0.295280     0.346656     0.406378    Uiso  ? Ce
   O397       1.0     0.263411     0.326284     0.422134    Uiso  ? O
   O398       1.0     0.264794     0.362911     0.395765    Uiso  ? O
   O399       1.0     0.295474     0.385714     0.423966    Uiso  ? O
   O400       1.0     0.230506     0.384209     0.419105    Uiso  ? O
   O401       1.0     0.325015     0.403729     0.365853    Uiso  ? O
   Ce190      1.0     0.264148     0.400423     0.406650    Uiso  ? Ce
   O402       1.0     0.264928     0.401630     0.370230    Uiso  ? O
   O403       1.0     0.296913     0.420363     0.393894    Uiso  ? O
   O404       1.0     0.230224     0.419011     0.397148    Uiso  ? O
   O405       1.0     0.264999     0.438469     0.419904    Uiso  ? O
   O406       1.0     0.295633     0.455278     0.369580    Uiso  ? O
   O407       1.0     0.232875     0.457359     0.370314    Uiso  ? O
   O408       1.0     0.263719     0.477798     0.394961    Uiso  ? O
   Ce191      1.0     0.197260     0.402349     0.404158    Uiso  ? Ce
   Ce192      1.0     0.171338     0.459536     0.406654    Uiso  ? Ce
   Ce193      1.0     0.234748     0.455113     0.408526    Uiso  ? Ce
   O409       1.0     0.203162     0.439093     0.420063    Uiso  ? O
   O410       1.0     0.199654     0.473761     0.396918    Uiso  ? O
   O411       1.0     0.232381     0.493918     0.417325    Uiso  ? O
   O412       1.0     0.167711     0.494345     0.422707    Uiso  ? O
   O413       1.0     0.262844     0.512069     0.369664    Uiso  ? O
   Ce194      1.0     0.202751     0.512248     0.409235    Uiso  ? Ce
   O414       1.0     0.202387     0.512423     0.369179    Uiso  ? O
   O415       1.0     0.233793     0.532435     0.396114    Uiso  ? O
   O416       1.0     0.168984     0.531787     0.396926    Uiso  ? O
   O417       1.0     0.201065     0.548276     0.419030    Uiso  ? O
   O418       1.0     0.234508     0.567836     0.369256    Uiso  ? O
   O419       1.0     0.171035     0.568937     0.368400    Uiso  ? O
   O420       1.0     0.200071     0.588241     0.395917    Uiso  ? O
   Ce195      1.0     0.136870     0.511091     0.404949    Uiso  ? Ce
   Ce196      1.0     0.167448     0.566463     0.406150    Uiso  ? Ce
   O421       1.0     0.167029     0.604545     0.423186    Uiso  ? O
   O422       1.0     0.202522     0.622280     0.368853    Uiso  ? O
   O423       1.0     0.168648     0.638572     0.395397    Uiso  ? O
   O424       1.0     0.167122     0.677932     0.370922    Uiso  ? O
   O425       1.0     0.546846     0.234181     0.367873    Uiso  ? O
   O426       1.0     0.485634     0.237651     0.369705    Uiso  ? O
   O427       1.0     0.518319     0.249766     0.394529    Uiso  ? O
   Ce197      1.0     0.421943     0.238078     0.410393    Uiso  ? Ce
   Ce198      1.0     0.483980     0.236304     0.405893    Uiso  ? Ce
   O428       1.0     0.448987     0.253953     0.396183    Uiso  ? O
   O429       1.0     0.484091     0.272710     0.423114    Uiso  ? O
   O430       1.0     0.419594     0.271925     0.420970    Uiso  ? O
   O431       1.0     0.519033     0.289762     0.367915    Uiso  ? O
   Ce199      1.0     0.454729     0.290869     0.411168    Uiso  ? Ce
   O432       1.0     0.450317     0.292950     0.369843    Uiso  ? O
   O433       1.0     0.484209     0.306322     0.394247    Uiso  ? O
   O434       1.0     0.419435     0.309170     0.394383    Uiso  ? O
   O435       1.0     0.452939     0.324593     0.417233    Uiso  ? O
   O436       1.0     0.482935     0.347699     0.367120    Uiso  ? O
   O437       1.0     0.422954     0.348947     0.369744    Uiso  ? O
   O438       1.0     0.452094     0.364498     0.395876    Uiso  ? O
   Ce200      1.0     0.390047     0.290056     0.406682    Uiso  ? Ce
   Ce201      1.0     0.359686     0.344838     0.409037    Uiso  ? Ce
   Ce202      1.0     0.423043     0.344703     0.406144    Uiso  ? Ce
   O439       1.0     0.391822     0.327757     0.415622    Uiso  ? O
   O440       1.0     0.389179     0.361943     0.394280    Uiso  ? O
   O441       1.0     0.421705     0.383777     0.419230    Uiso  ? O
   O442       1.0     0.359076     0.380323     0.423294    Uiso  ? O
   O443       1.0     0.455772     0.399948     0.369322    Uiso  ? O
   Ce203      1.0     0.390558     0.403781     0.408837    Uiso  ? Ce
   O444       1.0     0.392517     0.400555     0.368015    Uiso  ? O
   O445       1.0     0.423022     0.418036     0.395864    Uiso  ? O
   O446       1.0     0.358902     0.420576     0.395787    Uiso  ? O
   O447       1.0     0.392416     0.438028     0.418617    Uiso  ? O
   O448       1.0     0.419547     0.456501     0.366998    Uiso  ? O
   O449       1.0     0.359121     0.455601     0.371323    Uiso  ? O
   O450       1.0     0.389534     0.473725     0.393606    Uiso  ? O
   Ce204      1.0     0.324245     0.400082     0.409577    Uiso  ? Ce
   Ce205      1.0     0.296846     0.452993     0.407040    Uiso  ? Ce
   Ce206      1.0     0.358293     0.453990     0.407548    Uiso  ? Ce
   O451       1.0     0.328083     0.438737     0.419664    Uiso  ? O
   O452       1.0     0.326952     0.476369     0.391723    Uiso  ? O
   O453       1.0     0.358457     0.492601     0.416933    Uiso  ? O
   O454       1.0     0.293924     0.491243     0.423138    Uiso  ? O
   O455       1.0     0.389759     0.510624     0.370557    Uiso  ? O
   Ce207      1.0     0.329043     0.513388     0.403162    Uiso  ? Ce
   O456       1.0     0.326531     0.512003     0.369088    Uiso  ? O
   O457       1.0     0.360225     0.529740     0.394459    Uiso  ? O
   O458       1.0     0.300385     0.531490     0.394448    Uiso  ? O
   O459       1.0     0.328139     0.549114     0.419527    Uiso  ? O
   O460       1.0     0.361253     0.564376     0.369252    Uiso  ? O
   O461       1.0     0.298103     0.567618     0.368282    Uiso  ? O
   O462       1.0     0.325668     0.587124     0.395876    Uiso  ? O
   Ce208      1.0     0.263628     0.511755     0.406501    Uiso  ? Ce
   Ce209      1.0     0.233846     0.566499     0.407433    Uiso  ? Ce
   Ce210      1.0     0.294026     0.568038     0.408507    Uiso  ? Ce
   O463       1.0     0.263993     0.549170     0.419418    Uiso  ? O
   O464       1.0     0.267924     0.587859     0.395062    Uiso  ? O
   O465       1.0     0.297092     0.603197     0.419286    Uiso  ? O
   O466       1.0     0.234105     0.603056     0.420292    Uiso  ? O
   O467       1.0     0.328581     0.620816     0.368575    Uiso  ? O
   Ce211      1.0     0.265569     0.622943     0.404895    Uiso  ? Ce
   O468       1.0     0.265403     0.622431     0.368532    Uiso  ? O
   O469       1.0     0.295953     0.640225     0.396776    Uiso  ? O
   O470       1.0     0.233658     0.637320     0.396681    Uiso  ? O
   O471       1.0     0.264645     0.659103     0.417659    Uiso  ? O
   O472       1.0     0.298920     0.677186     0.369420    Uiso  ? O
   O473       1.0     0.233502     0.676987     0.366838    Uiso  ? O
   O474       1.0     0.262542     0.693169     0.394429    Uiso  ? O
   Ce212      1.0     0.202542     0.622058     0.407408    Uiso  ? Ce
   Ce213      1.0     0.170779     0.676790     0.409328    Uiso  ? Ce
   Ce214      1.0     0.230802     0.673771     0.409172    Uiso  ? Ce
   O475       1.0     0.203510     0.659536     0.419721    Uiso  ? O
   O476       1.0     0.202907     0.694435     0.394528    Uiso  ? O
   O477       1.0     0.229935     0.713834     0.421827    Uiso  ? O
   O478       1.0     0.168033     0.714278     0.418858    Uiso  ? O
   O479       1.0     0.264609     0.728393     0.368994    Uiso  ? O
   Ce215      1.0     0.203416     0.734647     0.405572    Uiso  ? Ce
   O480       1.0     0.202962     0.732547     0.370583    Uiso  ? O
   O481       1.0     0.229846     0.748389     0.395668    Uiso  ? O
   O482       1.0     0.171546     0.751911     0.397030    Uiso  ? O
   O483       1.0     0.675008     0.236709     0.367548    Uiso  ? O
   O484       1.0     0.614751     0.236528     0.368024    Uiso  ? O
   O485       1.0     0.642972     0.252995     0.392046    Uiso  ? O
   Ce216      1.0     0.613834     0.237249     0.406921    Uiso  ? Ce
   O486       1.0     0.580259     0.252442     0.395314    Uiso  ? O
   O487       1.0     0.610686     0.273185     0.419646    Uiso  ? O
   O488       1.0     0.548970     0.272173     0.420737    Uiso  ? O
   O489       1.0     0.645157     0.290445     0.369615    Uiso  ? O
   Ce217      1.0     0.579092     0.291270     0.408557    Uiso  ? Ce
   O490       1.0     0.578962     0.289288     0.367719    Uiso  ? O
   O491       1.0     0.614365     0.307371     0.394400    Uiso  ? O
   O492       1.0     0.548798     0.310311     0.396765    Uiso  ? O
   O493       1.0     0.580555     0.327565     0.421592    Uiso  ? O
   O494       1.0     0.616971     0.347673     0.369199    Uiso  ? O
   O495       1.0     0.546915     0.344222     0.368680    Uiso  ? O
   O496       1.0     0.579673     0.365287     0.396030    Uiso  ? O
   Ce218      1.0     0.516041     0.290264     0.405039    Uiso  ? Ce
   Ce219      1.0     0.484473     0.345378     0.406154    Uiso  ? Ce
   Ce220      1.0     0.548425     0.344972     0.405084    Uiso  ? Ce
   O497       1.0     0.518041     0.324862     0.420409    Uiso  ? O
   O498       1.0     0.514561     0.364669     0.396161    Uiso  ? O
   O499       1.0     0.549208     0.383701     0.418760    Uiso  ? O
   O500       1.0     0.483737     0.384373     0.418848    Uiso  ? O
   O501       1.0     0.581601     0.398748     0.368519    Uiso  ? O
   Ce221      1.0     0.515099     0.400482     0.408011    Uiso  ? Ce
   O502       1.0     0.515778     0.401979     0.369003    Uiso  ? O
   O503       1.0     0.550616     0.417831     0.394319    Uiso  ? O
   O504       1.0     0.484145     0.418651     0.389321    Uiso  ? O
   O505       1.0     0.517905     0.436896     0.422039    Uiso  ? O
   O506       1.0     0.549980     0.457866     0.369605    Uiso  ? O
   O507       1.0     0.487156     0.457918     0.371648    Uiso  ? O
   O508       1.0     0.517198     0.472561     0.396616    Uiso  ? O
   Ce222      1.0     0.455063     0.400583     0.408391    Uiso  ? Ce
   Ce223      1.0     0.417541     0.456371     0.409552    Uiso  ? Ce
   Ce224      1.0     0.484554     0.455694     0.410785    Uiso  ? Ce
   O509       1.0     0.454412     0.436935     0.419448    Uiso  ? O
   O510       1.0     0.455712     0.473345     0.394321    Uiso  ? O
   O511       1.0     0.483181     0.492032     0.423183    Uiso  ? O
   O512       1.0     0.425711     0.492995     0.419900    Uiso  ? O
   O513       1.0     0.518705     0.509327     0.370805    Uiso  ? O
   Ce225      1.0     0.454884     0.513643     0.406375    Uiso  ? Ce
   O514       1.0     0.454435     0.511059     0.372286    Uiso  ? O
   O515       1.0     0.484439     0.527493     0.391679    Uiso  ? O
   O516       1.0     0.418967     0.529277     0.395651    Uiso  ? O
   O517       1.0     0.455129     0.547908     0.419038    Uiso  ? O
   O518       1.0     0.488297     0.564136     0.369058    Uiso  ? O
   O519       1.0     0.422561     0.568174     0.369415    Uiso  ? O
   O520       1.0     0.456059     0.585148     0.395878    Uiso  ? O
   Ce226      1.0     0.389950     0.511499     0.404379    Uiso  ? Ce
   Ce227      1.0     0.360203     0.567813     0.406662    Uiso  ? Ce
   Ce228      1.0     0.423848     0.565149     0.407588    Uiso  ? Ce
   O521       1.0     0.390607     0.543886     0.418037    Uiso  ? O
   O522       1.0     0.391773     0.584643     0.391961    Uiso  ? O
   O523       1.0     0.423690     0.599563     0.419638    Uiso  ? O
   O524       1.0     0.358613     0.607212     0.424909    Uiso  ? O
   O525       1.0     0.452697     0.625151     0.367840    Uiso  ? O
   Ce229      1.0     0.393041     0.622024     0.410156    Uiso  ? Ce
   O526       1.0     0.387956     0.620921     0.368802    Uiso  ? O
   O527       1.0     0.422104     0.640877     0.396031    Uiso  ? O
   O528       1.0     0.358916     0.638774     0.394331    Uiso  ? O
   O529       1.0     0.392450     0.657939     0.422012    Uiso  ? O
   O530       1.0     0.427200     0.673347     0.368241    Uiso  ? O
   O531       1.0     0.362234     0.674325     0.371866    Uiso  ? O
   O532       1.0     0.391895     0.692623     0.395757    Uiso  ? O
   Ce230      1.0     0.328721     0.618736     0.404087    Uiso  ? Ce
   Ce231      1.0     0.295414     0.674327     0.408482    Uiso  ? Ce
   Ce232      1.0     0.362576     0.672653     0.408845    Uiso  ? Ce
   O533       1.0     0.328616     0.657344     0.417834    Uiso  ? O
   O534       1.0     0.330901     0.692832     0.395532    Uiso  ? O
   O535       1.0     0.357567     0.710241     0.419836    Uiso  ? O
   O536       1.0     0.297044     0.711105     0.424197    Uiso  ? O
   O537       1.0     0.391559     0.729291     0.366906    Uiso  ? O
   Ce233      1.0     0.329237     0.728554     0.406090    Uiso  ? Ce
   O538       1.0     0.326995     0.731731     0.368163    Uiso  ? O
   O539       1.0     0.361320     0.750429     0.392023    Uiso  ? O
   O540       1.0     0.293379     0.747598     0.394729    Uiso  ? O
   Ce234      1.0     0.266482     0.731316     0.405365    Uiso  ? Ce
   Ce235      1.0     0.675081     0.236010     0.403686    Uiso  ? Ce
   O541       1.0     0.707834     0.253012     0.394215    Uiso  ? O
   O542       1.0     0.740100     0.272756     0.420391    Uiso  ? O
   O543       1.0     0.675069     0.271438     0.421879    Uiso  ? O
   Ce236      1.0     0.706291     0.292079     0.406224    Uiso  ? Ce
   O544       1.0     0.709794     0.289465     0.368222    Uiso  ? O
   O545       1.0     0.736142     0.306350     0.397979    Uiso  ? O
   O546       1.0     0.678862     0.309231     0.395124    Uiso  ? O
   O547       1.0     0.708573     0.325565     0.421111    Uiso  ? O
   O548       1.0     0.738188     0.345762     0.370333    Uiso  ? O
   O549       1.0     0.674846     0.343929     0.370317    Uiso  ? O
   O550       1.0     0.710731     0.362180     0.394446    Uiso  ? O
   Ce237      1.0     0.642882     0.290064     0.408860    Uiso  ? Ce
   Ce238      1.0     0.613253     0.346944     0.407312    Uiso  ? Ce
   Ce239      1.0     0.673077     0.345306     0.408193    Uiso  ? Ce
   O551       1.0     0.644448     0.329668     0.421725    Uiso  ? O
   O552       1.0     0.643851     0.366057     0.393789    Uiso  ? O
   O553       1.0     0.676199     0.377796     0.420612    Uiso  ? O
   O554       1.0     0.611725     0.381714     0.419690    Uiso  ? O
   O555       1.0     0.707505     0.397475     0.367829    Uiso  ? O
   Ce240      1.0     0.645782     0.400399     0.407347    Uiso  ? Ce
   O556       1.0     0.638876     0.401970     0.367080    Uiso  ? O
   O557       1.0     0.677313     0.415627     0.395097    Uiso  ? O
   O558       1.0     0.611631     0.420109     0.396241    Uiso  ? O
   O559       1.0     0.646262     0.435919     0.420690    Uiso  ? O
   O560       1.0     0.679010     0.453819     0.368527    Uiso  ? O
   O561       1.0     0.616036     0.457447     0.367088    Uiso  ? O
   O562       1.0     0.646218     0.473320     0.395602    Uiso  ? O
   Ce241      1.0     0.580402     0.397682     0.408762    Uiso  ? Ce
   Ce242      1.0     0.548130     0.455947     0.411184    Uiso  ? Ce
   Ce243      1.0     0.610631     0.459623     0.409590    Uiso  ? Ce
   O563       1.0     0.582247     0.437605     0.422676    Uiso  ? O
   O564       1.0     0.579564     0.474036     0.396399    Uiso  ? O
   O565       1.0     0.610657     0.489980     0.422255    Uiso  ? O
   O566       1.0     0.552817     0.492720     0.421050    Uiso  ? O
   O567       1.0     0.645462     0.510137     0.370124    Uiso  ? O
   Ce244      1.0     0.583695     0.510574     0.408501    Uiso  ? Ce
   O568       1.0     0.580257     0.509994     0.367810    Uiso  ? O
   O569       1.0     0.613664     0.528218     0.395235    Uiso  ? O
   O570       1.0     0.548676     0.527402     0.395992    Uiso  ? O
   O571       1.0     0.580158     0.546058     0.420024    Uiso  ? O
   O572       1.0     0.615754     0.560996     0.369594    Uiso  ? O
   O573       1.0     0.550208     0.567355     0.366944    Uiso  ? O
   O574       1.0     0.579516     0.585196     0.393572    Uiso  ? O
   Ce245      1.0     0.519217     0.510709     0.406860    Uiso  ? Ce
   Ce246      1.0     0.487184     0.565710     0.409901    Uiso  ? Ce
   Ce247      1.0     0.549576     0.568651     0.409504    Uiso  ? Ce
   O575       1.0     0.520023     0.545260     0.420851    Uiso  ? O
   O576       1.0     0.518370     0.585281     0.397892    Uiso  ? O
   O577       1.0     0.550721     0.604131     0.422477    Uiso  ? O
   O578       1.0     0.485155     0.602768     0.419655    Uiso  ? O
   O579       1.0     0.584248     0.620708     0.370136    Uiso  ? O
   Ce248      1.0     0.518775     0.621410     0.406634    Uiso  ? Ce
   O580       1.0     0.516789     0.622993     0.367004    Uiso  ? O
   O581       1.0     0.550240     0.638752     0.393850    Uiso  ? O
   O582       1.0     0.485626     0.638634     0.393550    Uiso  ? O
   O583       1.0     0.517598     0.656453     0.420812    Uiso  ? O
   O584       1.0     0.550058     0.669952     0.367176    Uiso  ? O
   O585       1.0     0.486953     0.677916     0.370808    Uiso  ? O
   O586       1.0     0.519096     0.695853     0.395951    Uiso  ? O
   Ce249      1.0     0.453803     0.620867     0.408455    Uiso  ? Ce
   Ce250      1.0     0.422850     0.673540     0.410102    Uiso  ? Ce
   Ce251      1.0     0.486626     0.673617     0.407333    Uiso  ? Ce
   O587       1.0     0.455805     0.657716     0.418079    Uiso  ? O
   O588       1.0     0.456694     0.695671     0.392943    Uiso  ? O
   O589       1.0     0.486883     0.713773     0.419345    Uiso  ? O
   O590       1.0     0.424760     0.714004     0.421908    Uiso  ? O
   O591       1.0     0.518494     0.731378     0.370484    Uiso  ? O
   Ce252      1.0     0.452110     0.727184     0.406092    Uiso  ? Ce
   O592       1.0     0.458751     0.726497     0.367924    Uiso  ? O
   O593       1.0     0.488399     0.748292     0.395294    Uiso  ? O
   O594       1.0     0.420713     0.750276     0.395671    Uiso  ? O
   Ce253      1.0     0.389535     0.731447     0.408477    Uiso  ? Ce
   O595       1.0     0.801330     0.346232     0.367353    Uiso  ? O
   Ce254      1.0     0.739843     0.342984     0.407577    Uiso  ? Ce
   Ce255      1.0     0.800892     0.345458     0.407437    Uiso  ? Ce
   O596       1.0     0.771037     0.328002     0.417225    Uiso  ? O
   O597       1.0     0.772945     0.361581     0.393943    Uiso  ? O
   O598       1.0     0.804687     0.377889     0.421944    Uiso  ? O
   O599       1.0     0.738677     0.380055     0.420265    Uiso  ? O
   O600       1.0     0.834335     0.400268     0.369874    Uiso  ? O
   Ce256      1.0     0.773616     0.403376     0.406686    Uiso  ? Ce
   O601       1.0     0.768328     0.396805     0.371117    Uiso  ? O
   O602       1.0     0.803827     0.418933     0.392409    Uiso  ? O
   O603       1.0     0.738789     0.416805     0.393773    Uiso  ? O
   O604       1.0     0.771399     0.439188     0.419712    Uiso  ? O
   O605       1.0     0.801361     0.453190     0.369360    Uiso  ? O
   O606       1.0     0.738728     0.456115     0.369062    Uiso  ? O
   O607       1.0     0.772775     0.472798     0.394448    Uiso  ? O
   Ce257      1.0     0.708471     0.401431     0.408095    Uiso  ? Ce
   Ce258      1.0     0.675658     0.453241     0.406567    Uiso  ? Ce
   Ce259      1.0     0.738845     0.455613     0.410171    Uiso  ? Ce
   O608       1.0     0.708370     0.436227     0.424406    Uiso  ? O
   O609       1.0     0.709933     0.474555     0.393209    Uiso  ? O
   O610       1.0     0.740996     0.492129     0.421076    Uiso  ? O
   O611       1.0     0.678778     0.490551     0.422367    Uiso  ? O
   O612       1.0     0.773587     0.508063     0.368507    Uiso  ? O
   Ce260      1.0     0.705233     0.510219     0.408571    Uiso  ? Ce
   O613       1.0     0.708197     0.512410     0.368072    Uiso  ? O
   O614       1.0     0.739515     0.528088     0.394328    Uiso  ? O
   O615       1.0     0.674161     0.527012     0.392804    Uiso  ? O
   O616       1.0     0.708762     0.545164     0.422017    Uiso  ? O
   O617       1.0     0.741199     0.563971     0.369485    Uiso  ? O
   O618       1.0     0.677244     0.564849     0.367355    Uiso  ? O
   O619       1.0     0.708922     0.580743     0.396223    Uiso  ? O
   Ce261      1.0     0.646356     0.510751     0.408929    Uiso  ? Ce
   Ce262      1.0     0.611846     0.564611     0.408617    Uiso  ? Ce
   Ce263      1.0     0.680600     0.565361     0.404372    Uiso  ? Ce
   O620       1.0     0.644334     0.545799     0.421886    Uiso  ? O
   O621       1.0     0.648839     0.583471     0.397242    Uiso  ? O
   O622       1.0     0.674539     0.599394     0.422196    Uiso  ? O
   O623       1.0     0.610591     0.600858     0.423344    Uiso  ? O
   O624       1.0     0.712833     0.618495     0.369220    Uiso  ? O
   Ce264      1.0     0.645511     0.618756     0.404791    Uiso  ? Ce
   O625       1.0     0.645120     0.618071     0.371826    Uiso  ? O
   O626       1.0     0.677703     0.637535     0.395550    Uiso  ? O
   O627       1.0     0.611383     0.639151     0.394516    Uiso  ? O
   O628       1.0     0.644385     0.657469     0.418136    Uiso  ? O
   O629       1.0     0.676786     0.677637     0.369593    Uiso  ? O
   O630       1.0     0.614138     0.674637     0.369824    Uiso  ? O
   O631       1.0     0.647545     0.692521     0.396095    Uiso  ? O
   Ce265      1.0     0.580982     0.620211     0.405571    Uiso  ? Ce
   Ce266      1.0     0.548804     0.676372     0.408212    Uiso  ? Ce
   Ce267      1.0     0.616625     0.672746     0.411128    Uiso  ? Ce
   O632       1.0     0.584650     0.656912     0.420198    Uiso  ? O
   O633       1.0     0.583115     0.691365     0.396596    Uiso  ? O
   O634       1.0     0.614988     0.709608     0.419203    Uiso  ? O
   O635       1.0     0.549344     0.710363     0.422104    Uiso  ? O
   O636       1.0     0.645513     0.727894     0.367529    Uiso  ? O
   Ce268      1.0     0.582869     0.727949     0.407957    Uiso  ? Ce
   O637       1.0     0.583206     0.728921     0.368731    Uiso  ? O
   O638       1.0     0.614702     0.743937     0.397817    Uiso  ? O
   O639       1.0     0.552319     0.749222     0.396922    Uiso  ? O
   Ce269      1.0     0.519792     0.729881     0.409788    Uiso  ? Ce
   Ce270      1.0     0.834038     0.399336     0.406768    Uiso  ? Ce
   Ce271      1.0     0.800603     0.453782     0.408174    Uiso  ? Ce
   O640       1.0     0.833647     0.435976     0.420804    Uiso  ? O
   O641       1.0     0.833950     0.471802     0.393704    Uiso  ? O
   O642       1.0     0.802612     0.490199     0.421097    Uiso  ? O
   Ce272      1.0     0.834116     0.509523     0.408297    Uiso  ? Ce
   O643       1.0     0.829517     0.510334     0.370117    Uiso  ? O
   O644       1.0     0.865057     0.529012     0.397694    Uiso  ? O
   O645       1.0     0.800676     0.527345     0.396075    Uiso  ? O
   O646       1.0     0.838841     0.544750     0.423167    Uiso  ? O
   O647       1.0     0.867565     0.567932     0.365219    Uiso  ? O
   O648       1.0     0.803777     0.563125     0.368986    Uiso  ? O
   O649       1.0     0.836986     0.584378     0.395100    Uiso  ? O
   Ce273      1.0     0.772472     0.507853     0.407836    Uiso  ? Ce
   Ce274      1.0     0.738643     0.565772     0.406881    Uiso  ? Ce
   Ce275      1.0     0.804437     0.563250     0.404913    Uiso  ? Ce
   O650       1.0     0.775347     0.546446     0.417620    Uiso  ? O
   O651       1.0     0.774024     0.580242     0.397072    Uiso  ? O
   O652       1.0     0.801044     0.599491     0.419527    Uiso  ? O
   O653       1.0     0.738367     0.599672     0.421878    Uiso  ? O
   O654       1.0     0.836312     0.620580     0.371075    Uiso  ? O
   Ce276      1.0     0.772147     0.620493     0.407588    Uiso  ? Ce
   O655       1.0     0.770994     0.617796     0.370210    Uiso  ? O
   O656       1.0     0.801975     0.636330     0.396550    Uiso  ? O
   O657       1.0     0.740751     0.637465     0.394733    Uiso  ? O
   O658       1.0     0.770710     0.654393     0.420068    Uiso  ? O
   O659       1.0     0.806592     0.674885     0.367546    Uiso  ? O
   O660       1.0     0.737429     0.678195     0.370085    Uiso  ? O
   O661       1.0     0.773108     0.689966     0.395526    Uiso  ? O
   Ce277      1.0     0.706753     0.621628     0.407546    Uiso  ? Ce
   Ce278      1.0     0.677133     0.674817     0.408083    Uiso  ? Ce
   Ce279      1.0     0.739278     0.674273     0.408697    Uiso  ? Ce
   O662       1.0     0.707294     0.656183     0.422459    Uiso  ? O
   O663       1.0     0.710039     0.692221     0.395405    Uiso  ? O
   O664       1.0     0.740432     0.711870     0.419004    Uiso  ? O
   O665       1.0     0.675826     0.709839     0.418375    Uiso  ? O
   O666       1.0     0.771370     0.729980     0.368788    Uiso  ? O
   Ce280      1.0     0.706049     0.726989     0.408495    Uiso  ? Ce
   O667       1.0     0.708477     0.726693     0.364687    Uiso  ? O
   O668       1.0     0.740637     0.750996     0.394630    Uiso  ? O
   O669       1.0     0.680848     0.748654     0.394175    Uiso  ? O
   Ce281      1.0     0.643892     0.730542     0.409850    Uiso  ? Ce
   O670       1.0     0.899474     0.616939     0.367914    Uiso  ? O
   O671       1.0     0.870073     0.636289     0.397293    Uiso  ? O
   O672       1.0     0.868408     0.670163     0.366944    Uiso  ? O
   Ce282      1.0     0.836206     0.616189     0.408251    Uiso  ? Ce
   Ce283      1.0     0.804606     0.673577     0.408370    Uiso  ? Ce
   O673       1.0     0.836707     0.658215     0.420981    Uiso  ? O
   O674       1.0     0.835674     0.692728     0.396323    Uiso  ? O
   O675       1.0     0.805891     0.709650     0.424615    Uiso  ? O
   Ce284      1.0     0.835974     0.729714     0.404515    Uiso  ? Ce
   O676       1.0     0.839192     0.728095     0.366959    Uiso  ? O
   O677       1.0     0.805090     0.746138     0.394262    Uiso  ? O
   Ce285      1.0     0.774266     0.729422     0.408599    Uiso  ? Ce
   O678       1.0     0.170210     0.274773     0.343452    Uiso  ? O
   O679       1.0     0.136176     0.330187     0.343305    Uiso  ? O
   Ce286      1.0     0.105746     0.309626     0.358032    Uiso  ? Ce
   O680       1.0     0.104551     0.383109     0.341045    Uiso  ? O
   Ce287      1.0     0.264106     0.255617     0.357069    Uiso  ? Ce
   O681       1.0     0.293397     0.272776     0.344703    Uiso  ? O
   O682       1.0     0.230220     0.272968     0.341010    Uiso  ? O
   O683       1.0     0.260985     0.326444     0.346197    Uiso  ? O
   Ce288      1.0     0.200135     0.256076     0.354674    Uiso  ? Ce
   Ce289      1.0     0.166705     0.307891     0.355070    Uiso  ? Ce
   Ce290      1.0     0.230494     0.309861     0.355129    Uiso  ? Ce
   O684       1.0     0.199754     0.330046     0.343479    Uiso  ? O
   Ce291      1.0     0.200871     0.364312     0.357881    Uiso  ? Ce
   O685       1.0     0.233075     0.384862     0.343576    Uiso  ? O
   O686       1.0     0.164401     0.383447     0.342930    Uiso  ? O
   O687       1.0     0.202889     0.438896     0.341642    Uiso  ? O
   Ce292      1.0     0.138045     0.368099     0.356310    Uiso  ? Ce
   Ce293      1.0     0.103202     0.423723     0.357344    Uiso  ? Ce
   Ce294      1.0     0.168788     0.421917     0.356482    Uiso  ? Ce
   O688       1.0     0.137486     0.436335     0.340608    Uiso  ? O
   Ce295      1.0     0.139347     0.474733     0.353802    Uiso  ? Ce
   O689       1.0     0.166530     0.493848     0.344481    Uiso  ? O
   O690       1.0     0.105508     0.493903     0.343060    Uiso  ? O
   O691       1.0     0.139446     0.547290     0.345011    Uiso  ? O
   Ce296      1.0     0.389711     0.254164     0.354608    Uiso  ? Ce
   O692       1.0     0.426348     0.275000     0.344984    Uiso  ? O
   O693       1.0     0.357452     0.271454     0.342528    Uiso  ? O
   O694       1.0     0.389367     0.329386     0.342958    Uiso  ? O
   Ce297      1.0     0.324664     0.258775     0.358773    Uiso  ? Ce
   Ce298      1.0     0.294271     0.309517     0.355139    Uiso  ? Ce
   Ce299      1.0     0.360493     0.309996     0.356094    Uiso  ? Ce
   O695       1.0     0.326712     0.328289     0.343056    Uiso  ? O
   Ce300      1.0     0.324980     0.364479     0.353088    Uiso  ? Ce
   O696       1.0     0.358695     0.386051     0.343328    Uiso  ? O
   O697       1.0     0.296191     0.383877     0.341569    Uiso  ? O
   O698       1.0     0.327819     0.439849     0.342991    Uiso  ? O
   Ce301      1.0     0.266191     0.367157     0.353455    Uiso  ? Ce
   Ce302      1.0     0.234151     0.420013     0.357138    Uiso  ? Ce
   Ce303      1.0     0.291760     0.419058     0.352452    Uiso  ? Ce
   O699       1.0     0.265152     0.438225     0.340555    Uiso  ? O
   Ce304      1.0     0.265130     0.472966     0.356286    Uiso  ? Ce
   O700       1.0     0.296738     0.491889     0.345762    Uiso  ? O
   O701       1.0     0.233576     0.494015     0.342620    Uiso  ? O
   O702       1.0     0.263661     0.549699     0.344190    Uiso  ? O
   Ce305      1.0     0.200145     0.475743     0.355471    Uiso  ? Ce
   Ce306      1.0     0.170293     0.530300     0.357167    Uiso  ? Ce
   Ce307      1.0     0.232881     0.529630     0.356847    Uiso  ? Ce
   O703       1.0     0.200930     0.546704     0.343638    Uiso  ? O
   Ce308      1.0     0.196755     0.585689     0.355619    Uiso  ? Ce
   O704       1.0     0.231810     0.602258     0.343067    Uiso  ? O
   O705       1.0     0.170765     0.602494     0.344511    Uiso  ? O
   O706       1.0     0.204276     0.659219     0.341374    Uiso  ? O
   Ce309      1.0     0.136325     0.585299     0.353560    Uiso  ? Ce
   Ce310      1.0     0.171612     0.639913     0.352142    Uiso  ? Ce
   O707       1.0     0.137641     0.662273     0.343477    Uiso  ? O
   O708       1.0     0.170539     0.712394     0.343295    Uiso  ? O
   Ce311      1.0     0.515737     0.254910     0.356749    Uiso  ? Ce
   O709       1.0     0.548977     0.271459     0.343921    Uiso  ? O
   O710       1.0     0.484955     0.273219     0.342277    Uiso  ? O
   O711       1.0     0.518228     0.328405     0.344406    Uiso  ? O
   Ce312      1.0     0.455666     0.254617     0.357001    Uiso  ? Ce
   Ce313      1.0     0.422544     0.306713     0.358026    Uiso  ? Ce
   Ce314      1.0     0.485198     0.314283     0.357561    Uiso  ? Ce
   O712       1.0     0.451253     0.330393     0.341618    Uiso  ? O
   Ce315      1.0     0.452328     0.360313     0.355534    Uiso  ? Ce
   O713       1.0     0.487334     0.384262     0.345581    Uiso  ? O
   O714       1.0     0.420879     0.382972     0.343229    Uiso  ? O
   O715       1.0     0.454813     0.436059     0.342577    Uiso  ? O
   Ce316      1.0     0.388538     0.364148     0.355927    Uiso  ? Ce
   Ce317      1.0     0.361783     0.418952     0.357026    Uiso  ? Ce
   Ce318      1.0     0.425568     0.417458     0.357038    Uiso  ? Ce
   O716       1.0     0.392078     0.439052     0.343367    Uiso  ? O
   Ce319      1.0     0.391699     0.476714     0.356671    Uiso  ? Ce
   O717       1.0     0.424622     0.495421     0.344129    Uiso  ? O
   O718       1.0     0.362287     0.492844     0.345844    Uiso  ? O
   O719       1.0     0.388056     0.547952     0.341499    Uiso  ? O
   Ce320      1.0     0.326654     0.473429     0.356931    Uiso  ? Ce
   Ce321      1.0     0.297303     0.527063     0.358115    Uiso  ? Ce
   Ce322      1.0     0.360715     0.528605     0.356787    Uiso  ? Ce
   O720       1.0     0.327862     0.548035     0.341417    Uiso  ? O
   Ce323      1.0     0.327397     0.583402     0.356694    Uiso  ? Ce
   O721       1.0     0.355826     0.602246     0.342868    Uiso  ? O
   O722       1.0     0.298872     0.603816     0.342545    Uiso  ? O
   O723       1.0     0.327334     0.659634     0.341646    Uiso  ? O
   Ce324      1.0     0.265357     0.585069     0.357920    Uiso  ? Ce
   Ce325      1.0     0.231695     0.642781     0.355138    Uiso  ? Ce
   Ce326      1.0     0.297200     0.638028     0.357943    Uiso  ? Ce
   O724       1.0     0.264781     0.658718     0.343211    Uiso  ? O
   Ce327      1.0     0.266568     0.695698     0.356569    Uiso  ? Ce
   O725       1.0     0.298992     0.715057     0.345578    Uiso  ? O
   O726       1.0     0.235778     0.714064     0.340650    Uiso  ? O
   Ce328      1.0     0.204615     0.693130     0.358684    Uiso  ? Ce
   Ce329      1.0     0.168380     0.750862     0.355192    Uiso  ? Ce
   Ce330      1.0     0.230318     0.751450     0.356539    Uiso  ? Ce
   Ce331      1.0     0.643683     0.253958     0.354060    Uiso  ? Ce
   O727       1.0     0.676838     0.270087     0.342409    Uiso  ? O
   O728       1.0     0.610802     0.276015     0.342175    Uiso  ? O
   O729       1.0     0.643758     0.328043     0.342508    Uiso  ? O
   Ce332      1.0     0.575895     0.253634     0.354566    Uiso  ? Ce
   Ce333      1.0     0.551444     0.307929     0.355566    Uiso  ? Ce
   Ce334      1.0     0.611599     0.309087     0.357391    Uiso  ? Ce
   O730       1.0     0.583691     0.325538     0.343593    Uiso  ? O
   Ce335      1.0     0.580986     0.365166     0.355879    Uiso  ? Ce
   O731       1.0     0.610441     0.380881     0.343551    Uiso  ? O
   O732       1.0     0.548297     0.384088     0.341933    Uiso  ? O
   O733       1.0     0.583759     0.439992     0.341899    Uiso  ? O
   Ce336      1.0     0.518993     0.364847     0.358091    Uiso  ? Ce
   Ce337      1.0     0.485271     0.422978     0.356155    Uiso  ? Ce
   Ce338      1.0     0.549137     0.422502     0.355255    Uiso  ? Ce
   O734       1.0     0.517814     0.433724     0.343613    Uiso  ? O
   Ce339      1.0     0.516589     0.472791     0.355880    Uiso  ? Ce
   O735       1.0     0.549362     0.492768     0.343177    Uiso  ? O
   O736       1.0     0.484056     0.493183     0.341744    Uiso  ? O
   O737       1.0     0.517536     0.549782     0.339077    Uiso  ? O
   Ce340      1.0     0.454067     0.473418     0.355308    Uiso  ? Ce
   Ce341      1.0     0.422093     0.530816     0.357555    Uiso  ? Ce
   Ce342      1.0     0.483991     0.530775     0.357559    Uiso  ? Ce
   O738       1.0     0.452386     0.548497     0.343107    Uiso  ? O
   Ce343      1.0     0.454114     0.584199     0.358423    Uiso  ? Ce
   O739       1.0     0.488222     0.599351     0.345063    Uiso  ? O
   O740       1.0     0.424421     0.603525     0.342572    Uiso  ? O
   O741       1.0     0.455283     0.656462     0.341198    Uiso  ? O
   Ce344      1.0     0.391483     0.583351     0.355131    Uiso  ? Ce
   Ce345      1.0     0.361437     0.642653     0.352021    Uiso  ? Ce
   Ce346      1.0     0.422840     0.638136     0.354321    Uiso  ? Ce
   O742       1.0     0.392962     0.655170     0.342499    Uiso  ? O
   Ce347      1.0     0.390663     0.693512     0.356344    Uiso  ? Ce
   O743       1.0     0.424911     0.713788     0.343933    Uiso  ? O
   O744       1.0     0.360678     0.712075     0.342340    Uiso  ? O
   O745       1.0     0.395004     0.766353     0.343158    Uiso  ? O
   Ce348      1.0     0.328701     0.692775     0.356577    Uiso  ? Ce
   Ce349      1.0     0.296565     0.747468     0.357890    Uiso  ? Ce
   Ce350      1.0     0.362439     0.749087     0.356984    Uiso  ? Ce
   O746       1.0     0.734811     0.273587     0.339714    Uiso  ? O
   O747       1.0     0.769874     0.324501     0.343239    Uiso  ? O
   Ce351      1.0     0.711099     0.254541     0.351336    Uiso  ? Ce
   Ce352      1.0     0.674232     0.309552     0.355607    Uiso  ? Ce
   Ce353      1.0     0.737109     0.307515     0.356668    Uiso  ? Ce
   O748       1.0     0.709241     0.324576     0.347252    Uiso  ? O
   Ce354      1.0     0.710011     0.363548     0.354270    Uiso  ? Ce
   O749       1.0     0.739439     0.380388     0.342741    Uiso  ? O
   O750       1.0     0.678957     0.382227     0.342909    Uiso  ? O
   O751       1.0     0.708836     0.436719     0.346180    Uiso  ? O
   Ce355      1.0     0.643136     0.359978     0.356699    Uiso  ? Ce
   Ce356      1.0     0.610786     0.418862     0.354387    Uiso  ? Ce
   Ce357      1.0     0.675483     0.417657     0.354480    Uiso  ? Ce
   O752       1.0     0.641717     0.435140     0.340692    Uiso  ? O
   Ce358      1.0     0.642445     0.474435     0.354892    Uiso  ? Ce
   O753       1.0     0.671804     0.489159     0.342737    Uiso  ? O
   O754       1.0     0.610669     0.490851     0.339878    Uiso  ? O
   O755       1.0     0.645941     0.544083     0.341215    Uiso  ? O
   Ce359      1.0     0.582501     0.472923     0.358914    Uiso  ? Ce
   Ce360      1.0     0.548731     0.529308     0.352902    Uiso  ? Ce
   Ce361      1.0     0.615802     0.527214     0.354868    Uiso  ? Ce
   O756       1.0     0.582492     0.545269     0.343437    Uiso  ? O
   Ce362      1.0     0.582794     0.583255     0.355538    Uiso  ? Ce
   O757       1.0     0.612577     0.601204     0.342265    Uiso  ? O
   O758       1.0     0.549344     0.602802     0.343171    Uiso  ? O
   O759       1.0     0.582690     0.657635     0.345175    Uiso  ? O
   Ce363      1.0     0.517698     0.583019     0.356036    Uiso  ? Ce
   Ce364      1.0     0.485718     0.637631     0.352938    Uiso  ? Ce
   Ce365      1.0     0.549989     0.638989     0.355411    Uiso  ? Ce
   O760       1.0     0.516042     0.656841     0.342637    Uiso  ? O
   Ce366      1.0     0.517265     0.693063     0.354678    Uiso  ? Ce
   O761       1.0     0.550217     0.711297     0.342765    Uiso  ? O
   O762       1.0     0.484701     0.711623     0.341837    Uiso  ? O
   O763       1.0     0.515703     0.769132     0.341971    Uiso  ? O
   Ce367      1.0     0.456204     0.694513     0.355733    Uiso  ? Ce
   Ce368      1.0     0.425914     0.749915     0.356875    Uiso  ? Ce
   Ce369      1.0     0.487815     0.754604     0.357725    Uiso  ? Ce
   O764       1.0     0.453941     0.767156     0.342703    Uiso  ? O
   O765       1.0     0.803237     0.384362     0.343627    Uiso  ? O
   O766       1.0     0.834291     0.439124     0.341104    Uiso  ? O
   Ce370      1.0     0.772695     0.366663     0.355859    Uiso  ? Ce
   Ce371      1.0     0.739754     0.418376     0.353212    Uiso  ? Ce
   Ce372      1.0     0.804466     0.417554     0.357319    Uiso  ? Ce
   O767       1.0     0.772339     0.436979     0.341288    Uiso  ? O
   Ce373      1.0     0.771803     0.472030     0.355021    Uiso  ? Ce
   O768       1.0     0.800896     0.487296     0.342045    Uiso  ? O
   O769       1.0     0.737638     0.491548     0.342064    Uiso  ? O
   O770       1.0     0.772977     0.543709     0.343000    Uiso  ? O
   Ce374      1.0     0.708454     0.473260     0.356280    Uiso  ? Ce
   Ce375      1.0     0.677061     0.525576     0.355895    Uiso  ? Ce
   Ce376      1.0     0.739557     0.527103     0.356471    Uiso  ? Ce
   O771       1.0     0.706541     0.546763     0.341182    Uiso  ? O
   Ce377      1.0     0.710413     0.584837     0.355864    Uiso  ? Ce
   O772       1.0     0.738372     0.600655     0.343380    Uiso  ? O
   O773       1.0     0.677381     0.600219     0.341071    Uiso  ? O
   O774       1.0     0.708350     0.656188     0.342244    Uiso  ? O
   Ce378      1.0     0.643253     0.582111     0.354922    Uiso  ? Ce
   Ce379      1.0     0.613098     0.637880     0.353829    Uiso  ? Ce
   Ce380      1.0     0.675451     0.637252     0.355386    Uiso  ? Ce
   O775       1.0     0.643587     0.655614     0.341996    Uiso  ? O
   Ce381      1.0     0.644210     0.692332     0.354015    Uiso  ? Ce
   O776       1.0     0.678451     0.710385     0.345894    Uiso  ? O
   O777       1.0     0.614308     0.713616     0.344094    Uiso  ? O
   O778       1.0     0.647213     0.765770     0.342151    Uiso  ? O
   Ce382      1.0     0.583307     0.694047     0.356540    Uiso  ? Ce
   Ce383      1.0     0.551402     0.746663     0.358846    Uiso  ? Ce
   Ce384      1.0     0.613682     0.747261     0.358290    Uiso  ? Ce
   O779       1.0     0.585569     0.765164     0.342661    Uiso  ? O
   O780       1.0     0.865537     0.490222     0.344141    Uiso  ? O
   O781       1.0     0.900000     0.545243     0.342854    Uiso  ? O
   Ce385      1.0     0.836079     0.473434     0.353935    Uiso  ? Ce
   Ce386      1.0     0.801676     0.526548     0.357686    Uiso  ? Ce
   Ce387      1.0     0.870284     0.527804     0.357557    Uiso  ? Ce
   O782       1.0     0.836542     0.546247     0.339610    Uiso  ? O
   Ce388      1.0     0.835481     0.579321     0.353713    Uiso  ? Ce
   O783       1.0     0.868196     0.598391     0.340939    Uiso  ? O
   O784       1.0     0.803930     0.597515     0.342210    Uiso  ? O
   O785       1.0     0.834460     0.657097     0.343946    Uiso  ? O
   Ce389      1.0     0.770610     0.580504     0.359481    Uiso  ? Ce
   Ce390      1.0     0.744169     0.635081     0.354605    Uiso  ? Ce
   Ce391      1.0     0.801288     0.632391     0.358595    Uiso  ? Ce
   O786       1.0     0.773407     0.653929     0.344459    Uiso  ? O
   Ce392      1.0     0.772111     0.692474     0.353553    Uiso  ? Ce
   O787       1.0     0.803037     0.712330     0.340951    Uiso  ? O
   O788       1.0     0.743585     0.710512     0.343021    Uiso  ? O
   O789       1.0     0.771578     0.766633     0.341787    Uiso  ? O
   Ce393      1.0     0.712299     0.693154     0.354924    Uiso  ? Ce
   Ce394      1.0     0.677796     0.748276     0.357922    Uiso  ? Ce
   Ce395      1.0     0.742453     0.750863     0.353080    Uiso  ? Ce
   O790       1.0     0.710064     0.764744     0.343171    Uiso  ? O
   Ce396      1.0     0.899146     0.579061     0.354744    Uiso  ? Ce
   Ce397      1.0     0.869660     0.638151     0.355491    Uiso  ? Ce
   Ce398      1.0     0.836858     0.693636     0.356875    Uiso  ? Ce
   Ce399      1.0     0.804463     0.749182     0.356455    Uiso  ? Ce
   O791       1.0     0.483615     0.308317     0.551226    Uiso  ? O
   O792       1.0     0.450360     0.361664     0.552251    Uiso  ? O
   O793       1.0     0.388197     0.363281     0.552955    Uiso  ? O
   Ce400      1.0     0.388871     0.402396     0.561766    Uiso  ? Ce
   O794       1.0     0.419411     0.419735     0.550619    Uiso  ? O
   O795       1.0     0.357151     0.417937     0.549514    Uiso  ? O
   O796       1.0     0.645318     0.254816     0.553192    Uiso  ? O
   O797       1.0     0.579120     0.250907     0.549496    Uiso  ? O
   Ce401      1.0     0.579637     0.292609     0.565123    Uiso  ? Ce
   O798       1.0     0.613150     0.311739     0.550141    Uiso  ? O
   O799       1.0     0.549567     0.306510     0.547949    Uiso  ? O
   O800       1.0     0.582438     0.362660     0.552111    Uiso  ? O
   Ce402      1.0     0.482330     0.343777     0.562325    Uiso  ? Ce
   Ce403      1.0     0.548444     0.345393     0.564875    Uiso  ? Ce
   O801       1.0     0.519761     0.326987     0.574609    Uiso  ? O
   O802       1.0     0.517957     0.366118     0.553949    Uiso  ? O
   O803       1.0     0.550637     0.379906     0.572972    Uiso  ? O
   O804       1.0     0.484000     0.380826     0.576300    Uiso  ? O
   Ce404      1.0     0.519300     0.401716     0.562216    Uiso  ? Ce
   O805       1.0     0.547576     0.419581     0.553040    Uiso  ? O
   O806       1.0     0.486164     0.419159     0.550596    Uiso  ? O
   Ce405      1.0     0.452069     0.402604     0.561183    Uiso  ? Ce
   O807       1.0     0.680205     0.306083     0.550264    Uiso  ? O
   O808       1.0     0.707970     0.362725     0.552800    Uiso  ? O
   Ce406      1.0     0.612579     0.344190     0.563280    Uiso  ? Ce
   O809       1.0     0.642798     0.365138     0.547736    Uiso  ? O
   O810       1.0     0.609051     0.380723     0.578174    Uiso  ? O
   Ce407      1.0     0.642932     0.399384     0.563056    Uiso  ? Ce
   O811       1.0     0.674371     0.417631     0.549593    Uiso  ? O
   O812       1.0     0.613507     0.419090     0.550552    Uiso  ? O
   Ce408      1.0     0.583107     0.401377     0.562711    Uiso  ? Ce
   O813       1.0     0.580945     0.434918     0.574286    Uiso  ? O
